AV-unprocessed.smi:668|AV-procd|sdf|3260|dock5
  -GOLD-   22720 0213D 1   1.00000     0.00000
 Structure written by MMmdl.
 38 39  0  0  0  0  0  0  0  0  1 V2000
  146.0247  128.8066  152.4234 C   0  0  0  0  0  0  0  0  0  0  0  0
  147.0313  129.0425  153.4016 O   0  0  0  0  0  0  0  0  0  0  0  0
  147.5403  130.3193  153.5235 C   0  0  0  0  0  0  0  0  0  0  0  0
  148.6032  130.5383  154.4218 C   0  0  0  0  0  0  0  0  0  0  0  0
  149.1269  131.8384  154.5552 C   0  0  0  0  0  0  0  0  0  0  0  0
  148.5728  132.8828  153.7760 C   0  0  0  0  0  0  0  0  0  0  0  0
  148.9942  134.2401  153.8235 N   0  0  0  0  0  0  0  0  0  0  0  0
  149.6605  134.8880  154.7944 C   0  0  0  0  0  0  0  0  0  0  0  0
  150.0619  134.3882  155.8447 O   0  0  0  0  0  0  0  0  0  0  0  0
  149.8459  136.1763  154.4742 N   0  0  0  0  0  0  0  0  0  0  0  0
  150.5183  137.1633  155.3209 C   0  0  1  0  0  0  0  0  0  0  0  0
  151.8919  137.5515  154.7425 C   0  0  0  0  0  0  0  0  0  0  0  0
  152.0433  139.0662  154.9341 C   0  0  0  0  0  0  0  0  0  0  0  0
  150.8567  139.5038  155.7979 C   0  0  0  0  0  0  0  0  0  0  0  0
  149.7373  138.4896  155.5195 C   0  0  1  0  0  0  0  0  0  0  0  0
  148.8782  138.9302  154.3139 C   0  0  0  0  0  0  0  0  0  0  0  0
  149.4872  138.9882  153.1270 N   0  0  0  0  0  0  0  0  0  0  0  0
  147.6907  139.2210  154.4491 O   0  0  0  0  0  0  0  0  0  0  0  0
  147.5055  132.5592  152.9130 C   0  0  0  0  0  0  0  0  0  0  0  0
  146.9983  131.3157  152.7809 N   0  0  0  0  0  0  0  0  0  0  0  0
  145.7321  127.7572  152.4537 H   0  0  0  0  0  0  0  0  0  0  0  0
  146.3874  129.0196  151.4168 H   0  0  0  0  0  0  0  0  0  0  0  0
  145.1329  129.4042  152.6172 H   0  0  0  0  0  0  0  0  0  0  0  0
  149.0079  129.7230  155.0033 H   0  0  0  0  0  0  0  0  0  0  0  0
  149.9283  132.0020  155.2577 H   0  0  0  0  0  0  0  0  0  0  0  0
  148.7863  134.7817  152.9972 H   0  0  0  0  0  0  0  0  0  0  0  0
  149.4831  136.5066  153.5918 H   0  0  0  0  0  0  0  0  0  0  0  0
  150.6873  136.7215  156.3053 H   0  0  0  0  0  0  0  0  0  0  0  0
  152.6885  137.0068  155.2510 H   0  0  0  0  0  0  0  0  0  0  0  0
  151.9657  137.3099  153.6811 H   0  0  0  0  0  0  0  0  0  0  0  0
  152.9975  139.3301  155.3914 H   0  0  0  0  0  0  0  0  0  0  0  0
  152.0004  139.5640  153.9646 H   0  0  0  0  0  0  0  0  0  0  0  0
  151.1343  139.4500  156.8514 H   0  0  0  0  0  0  0  0  0  0  0  0
  150.5647  140.5360  155.5981 H   0  0  0  0  0  0  0  0  0  0  0  0
  149.0859  138.4069  156.3913 H   0  0  0  0  0  0  0  0  0  0  0  0
  148.9682  139.2653  152.3064 H   0  0  0  0  0  0  0  0  0  0  0  0
  150.4653  138.7488  153.0538 H   0  0  0  0  0  0  0  0  0  0  0  0
  147.0420  133.3230  152.3055 H   0  0  0  0  0  0  0  0  0  0  0  0
  1  2  1  0  0  0  0
  1 21  1  0  0  0  0
  1 22  1  0  0  0  0
  1 23  1  0  0  0  0
  2  3  1  0  0  0  0
  3 20  1  0  0  0  0
  3  4  2  0  0  0  0
  4  5  1  0  0  0  0
  4 24  1  0  0  0  0
  5  6  2  0  0  0  0
  5 25  1  0  0  0  0
  6  7  1  0  0  0  0
  6 19  1  0  0  0  0
  7  8  1  0  0  0  0
  7 26  1  0  0  0  0
  8  9  2  0  0  0  0
  8 10  1  0  0  0  0
 10 11  1  0  0  0  0
 10 27  1  0  0  0  0
 11 15  1  0  0  0  0
 11 12  1  0  0  0  0
 11 28  1  0  0  0  0
 12 13  1  0  0  0  0
 12 29  1  0  0  0  0
 12 30  1  0  0  0  0
 13 14  1  0  0  0  0
 13 31  1  0  0  0  0
 13 32  1  0  0  0  0
 14 15  1  0  0  0  0
 14 33  1  0  0  0  0
 14 34  1  0  0  0  0
 15 16  1  0  0  0  0
 15 35  1  0  0  0  0
 16 17  1  0  0  0  0
 16 18  2  0  0  0  0
 17 36  1  0  0  0  0
 17 37  1  0  0  0  0
 19 20  2  0  0  0  0
 19 38  1  0  0  0  0
M  END
> <s_m_source_file>
AV-unprocessed.smi

> <i_m_source_file_index>
668

> <i_lp_mmshare_version>
43012

> <i_f3d_flags>
0

> <s_epik_input>
W0NIM11PYzFbY0hdW2NIXWMoW2NIXW4xKVtOSF1DKD1PKVtOSF1bQ0BASF0yW0NIMl1bQ0gyXVtDSDJdW0NASF0yQyg9TylbTkgyXQ==

> <s_epik_cmdline>
J2VwaWtfcHl0aG9uJywgJy1waCcsICc3LjAnLCAnLXRuJywgJzgnLCAnLW1hJywgJzIwMCcsICctbWV0YWxfYmluZGluZycsICctaW1hZScsICc8aW5maWxlLm1hZT4nLCAnLW9tYWUnLCAnPG91dGZpbGUubWFlPic=

> <r_lp_tautomer_probability>
1

> <r_epik_Ionization_Penalty>
9.0916e-05

> <r_epik_Ionization_Penalty_Charging>
0

> <r_epik_Ionization_Penalty_Neutral>
9.0916e-05

> <r_epik_State_Penalty>
-0

> <r_epik_Charging_Adjusted_Penalty>
0

> <i_epik_Tot_Q>
0

> <i_epik_Tot_abs_Q>
0

> <r_epik_Metal_State_Penalty>
-0

> <b_epik_Metal_Only>
0

> <s_lp_Force_Field>
OPLS_2005

> <r_lp_Energy>
16.947

> <b_lp_Chiralities_Consistent>
1

> <s_lp_Variant>
AV-unprocessed.smi:668-2

> <Gold.Version>
5.8.1

> <Gold.Id.Protein>
6NUR|6NUR_protein|mol2

> <Gold.PLP.Fitness>
37.0680

> <Gold.PLP.PLP>
-30.8240

> <Gold.PLP.part.hbond>
-3.5958

> <Gold.PLP.part.metal>
0.0000

> <Gold.PLP.part.buried>
-0.4806

> <Gold.PLP.part.nonpolar>
-26.5642

> <Gold.PLP.part.repulsive>
0.5429

> <Gold.PLP.ligand.clash>
0.0000

> <Gold.PLP.ligand.torsion>
0.3154

> <Gold.PLP.Chemscore.Hbond>
2.2820

> <Gold.PLP.Chemscore.CHOScore>
0.0000

> <Gold.PLP.Chemscore.Metal>
0.0000

> <Gold.Chemscore.Hbonds>
donor molecule, donor type, donor heavy atom, donor atom, acceptor molecule, acceptor atom, score
      L1  H     7    26       P1  7948  0.90
      L1  H    10    27       P1  7948  1.00
      L1  H    17    36       P1  7957  0.44

> <Gold.PLP.Chemscore.Internal.Correction>
0.0288

> <Gold.Rescore>
     Score         DG    S(hbond)    S(metal)    S(lipo)     H(rot)  DE(clash)    DE(int)     intcor
     12.71     -14.12       2.03        0.00      56.82       1.86       0.01       1.40       ----

> <Gold.Chemscore.Fitness>
12.7139

> <Gold.Chemscore.DG>
-14.1200

> <Gold.Chemscore.ZeroCoef>
-5.4800

> <Gold.Chemscore.Hbond>
2.0256

> <Gold.Chemscore.Metal>
0.0000

> <Gold.Chemscore.Lipo>
56.8242

> <Gold.Chemscore.Internal_Hbond>
0.0000

> <Gold.Chemscore.DEClash>
0.0059

> <Gold.Chemscore.DEInternal>
1.4002

> <Gold.Chemscore.Rot>
1.8648

> <Gold.Chemscore.Internal.Correction>
   9.000000E+99

> <Gold.Chemscore.Hbonds>
donor molecule, donor type, donor heavy atom, donor atom, acceptor molecule, acceptor atom, score
      L1  H     7    26       P1  7948  0.18
      L1  H    10    27       P1  7948  0.71
      L1  H    17    36       P1  7957  0.42

> <Gold.Chemscore.Hbond.Weighted>
-6.7655

> <Gold.Chemscore.Metal.Weighted>
-0.0000

> <Gold.Chemscore.Lipo.Weighted>
-6.6484

> <Gold.Chemscore.Internal_Hbond.Weighted>
0.0000

> <Gold.Chemscore.DEClash.Weighted>
0.0059

> <Gold.Chemscore.DEInternal.Weighted>
1.4002

> <Gold.Chemscore.Rot.Weighted>
4.7739

> <Gold.Chemscore.Internal.Correction.Weighted>
   9.000000E+99

> <Gold.Protein.RotatedTorsions>
[ 6907 6896 6895 6894 ] final -169.28 input  -60.11 | X-H torsion
[ 7974 7965 7964 7962 ] final   80.90 input  175.53 | X-H torsion
[ 8008 7997 7996 7995 ] final   -5.51 input   59.86 | X-H torsion
[ 10167 10162 10161 10158 ] final   28.96 input  -65.29 | X-H torsion
[ 10718 10713 10712 10709 ] final  110.46 input   66.30 | X-H torsion
[ 10763 10752 10751 10750 ] final   76.07 input  -60.55 | X-H torsion
[ 11005 11000 10999 10996 ] final   29.33 input  -57.11 | X-H torsion

> <Gold.Protein.ActiveResidues>
 VAL166  LYS551  ARG553  GLY616  TRP617  ASP618  TYR619  PRO620  LYS621  CYS622 
 ASP623  PHE694  ASN695  SER759  ASP760  ASP761  ALA762  ILE779  LEU786  VAL792 
 PHE793  MET794  SER795  GLU796  ALA797  LYS798  CYS799  TRP800  GLU811  SER814 

> <Gold.Protein.RotatedAtoms>
  151.4890  133.3529  159.2850 H   0  0  0  0  0  0  0  0  0  0  0  0  # atno 6907 bound_to 6896
  150.8847  134.8245  159.7261 H   0  0  0  0  0  0  0  0  0  0  0  0  # atno 6908 bound_to 6896
  152.4785  134.4792  159.9712 H   0  0  0  0  0  0  0  0  0  0  0  0  # atno 6909 bound_to 6896
  145.6452  139.2434  143.2008 H   0  0  0  0  0  0  0  0  0  0  0  0  # atno 7974 bound_to 7965
  154.6031  140.2456  155.7766 H   0  0  0  0  0  0  0  0  0  0  0  0  # atno 8008 bound_to 7997
  156.2324  140.2962  156.0174 H   0  0  0  0  0  0  0  0  0  0  0  0  # atno 8009 bound_to 7997
  155.2177  140.0399  157.2934 H   0  0  0  0  0  0  0  0  0  0  0  0  # atno 8010 bound_to 7997
  140.4807  144.0620  150.6264 H   0  0  0  0  0  0  0  0  0  0  0  0  # atno 10167 bound_to 10162
  157.6493  131.0933  150.6605 H   0  0  0  0  0  0  0  0  0  0  0  0  # atno 10718 bound_to 10713
  153.0699  135.4965  154.8282 H   0  0  0  0  0  0  0  0  0  0  0  0  # atno 10763 bound_to 10752
  154.7008  135.3001  154.9346 H   0  0  0  0  0  0  0  0  0  0  0  0  # atno 10764 bound_to 10752
  154.0071  135.6759  153.4815 H   0  0  0  0  0  0  0  0  0  0  0  0  # atno 10765 bound_to 10752
  140.3061  134.2702  155.7743 H   0  0  0  0  0  0  0  0  0  0  0  0  # atno 11005 bound_to 11000
  146.1248  140.7262  142.9440 LP  0  0  0  0  0  0  0  0  0  0  0  0  # atno 17320 bound_to 7965
  144.7142  140.4151  143.7057 LP  0  0  0  0  0  0  0  0  0  0  0  0  # atno 17321 bound_to 7965
  140.3861  143.2777  152.0114 LP  0  0  0  0  0  0  0  0  0  0  0  0  # atno 17342 bound_to 10162
  139.4833  144.6115  151.7424 LP  0  0  0  0  0  0  0  0  0  0  0  0  # atno 17343 bound_to 10162
  156.6918  130.4597  149.5597 LP  0  0  0  0  0  0  0  0  0  0  0  0  # atno 17370 bound_to 10713
  156.1856  130.6527  151.1002 LP  0  0  0  0  0  0  0  0  0  0  0  0  # atno 17371 bound_to 10713
  141.2118  133.7678  156.9839 LP  0  0  0  0  0  0  0  0  0  0  0  0  # atno 17394 bound_to 11000
  140.1066  134.9503  157.2003 LP  0  0  0  0  0  0  0  0  0  0  0  0  # atno 17395 bound_to 11000

$$$$
