AV-unprocessed.smi:212|AV-procd|sdf|1622|dock5
  -GOLD-   2262019563D 1   1.00000     0.00000
 Structure written by MMmdl.
 65 68  0  0  0  0  0  0  0  0  2 V2000
  142.2060  134.5048  152.8972 C   0  0  0  0  0  0  0  0  0  0  0  0
  143.5550  135.0633  153.3806 C   0  0  1  0  0  0  0  0  0  0  0  0
  144.7388  134.1557  152.9814 C   0  0  0  0  0  0  0  0  0  0  0  0
  145.0325  134.2400  151.5267 N   0  3  2  0  0  0  0  0  0  0  0  0
  146.0905  133.2919  151.0876 C   0  0  0  0  0  0  0  0  0  0  0  0
  145.5183  132.0547  150.3560 C   0  0  0  0  0  0  0  0  0  0  0  0
  145.1251  130.9740  151.3769 C   0  0  0  0  0  0  0  0  0  0  0  0
  144.3139  132.4089  149.4640 C   0  0  0  0  0  0  0  0  0  0  0  0
  146.5243  131.4882  149.5403 O   0  0  0  0  0  0  0  0  0  0  0  0
  145.2759  135.6374  151.0851 C   0  0  0  0  0  0  0  0  0  0  0  0
  144.1006  136.5523  151.4744 C   0  0  0  0  0  0  0  0  0  0  0  0
  143.7782  136.4276  152.8966 N   0  0  0  0  0  0  0  0  0  0  0  0
  144.3616  137.2831  153.7768 C   0  0  0  0  0  0  0  0  0  0  0  0
  143.9389  137.3211  155.0687 N   0  0  0  0  0  0  0  0  0  0  0  0
  144.4990  138.1658  155.9390 C   0  0  0  0  0  0  0  0  0  0  0  0
  145.4841  139.0414  155.7345 N   0  0  0  0  0  0  0  0  0  0  0  0
  145.9217  139.0019  154.4437 C   0  0  0  0  0  0  0  0  0  0  0  0
  145.4180  138.1640  153.4088 C   0  0  0  0  0  0  0  0  0  0  0  0
  146.1130  138.4014  152.2284 N   0  0  0  0  0  0  0  0  0  0  0  0
  146.9763  139.3274  152.5466 C   0  0  0  0  0  0  0  0  0  0  0  0
  146.9383  139.7373  153.8600 N   0  0  0  0  0  0  0  0  0  0  0  0
  147.7903  140.7373  154.4812 C   0  0  0  0  0  0  0  0  0  0  0  0
  148.7959  140.1427  155.4984 C   0  0  1  0  0  0  0  0  0  0  0  0
  149.6441  139.0318  154.8344 C   0  0  0  0  0  0  0  0  0  0  0  0
  150.4388  139.5662  153.7961 O   0  0  0  0  0  0  0  0  0  0  0  0
  149.6474  141.2311  156.2131 C   0  0  2  0  0  0  0  0  0  0  0  0
  150.9851  140.7617  156.7806 C   0  0  0  0  0  0  0  0  0  0  0  0
  151.1582  141.6432  158.0095 C   0  0  0  0  0  0  0  0  0  0  0  0
  149.8371  141.7263  158.5154 O   0  0  0  0  0  0  0  0  0  0  0  0
  148.9644  141.9187  157.4094 C   0  0  0  0  0  0  0  0  0  0  0  0
  142.0231  133.5143  153.3142 H   0  0  0  0  0  0  0  0  0  0  0  0
  142.1627  134.4160  151.8117 H   0  0  0  0  0  0  0  0  0  0  0  0
  141.3840  135.1486  153.2122 H   0  0  0  0  0  0  0  0  0  0  0  0
  143.5150  135.0628  154.4698 H   0  0  0  0  0  0  0  0  0  0  0  0
  145.6307  134.4502  153.5371 H   0  0  0  0  0  0  0  0  0  0  0  0
  144.5217  133.1236  153.2597 H   0  0  0  0  0  0  0  0  0  0  0  0
  146.8224  133.8062  150.4623 H   0  0  0  0  0  0  0  0  0  0  0  0
  146.6511  132.9418  151.9559 H   0  0  0  0  0  0  0  0  0  0  0  0
  144.3413  131.3301  152.0464 H   0  0  0  0  0  0  0  0  0  0  0  0
  145.9748  130.6796  151.9946 H   0  0  0  0  0  0  0  0  0  0  0  0
  144.7511  130.0756  150.8845 H   0  0  0  0  0  0  0  0  0  0  0  0
  143.5138  132.8658  150.0475 H   0  0  0  0  0  0  0  0  0  0  0  0
  143.9026  131.5205  148.9830 H   0  0  0  0  0  0  0  0  0  0  0  0
  144.5850  133.1080  148.6719 H   0  0  0  0  0  0  0  0  0  0  0  0
  147.3253  131.4363  150.0403 H   0  0  0  0  0  0  0  0  0  0  0  0
  146.2011  136.0004  151.5347 H   0  0  0  0  0  0  0  0  0  0  0  0
  145.4186  135.6725  150.0054 H   0  0  0  0  0  0  0  0  0  0  0  0
  144.3175  137.5884  151.2111 H   0  0  0  0  0  0  0  0  0  0  0  0
  143.2175  136.2803  150.8962 H   0  0  0  0  0  0  0  0  0  0  0  0
  144.1021  138.1355  156.9431 H   0  0  0  0  0  0  0  0  0  0  0  0
  147.6764  139.7331  151.8304 H   0  0  0  0  0  0  0  0  0  0  0  0
  148.3191  141.2618  153.6847 H   0  0  0  0  0  0  0  0  0  0  0  0
  147.1586  141.4803  154.9694 H   0  0  0  0  0  0  0  0  0  0  0  0
  148.2092  139.6658  156.2854 H   0  0  0  0  0  0  0  0  0  0  0  0
  150.2995  138.5482  155.5589 H   0  0  0  0  0  0  0  0  0  0  0  0
  149.0192  138.2514  154.4024 H   0  0  0  0  0  0  0  0  0  0  0  0
  149.9578  139.4996  152.9852 H   0  0  0  0  0  0  0  0  0  0  0  0
  149.8592  142.0297  155.5014 H   0  0  0  0  0  0  0  0  0  0  0  0
  150.9469  139.7191  157.0930 H   0  0  0  0  0  0  0  0  0  0  0  0
  151.8073  140.8674  156.0732 H   0  0  0  0  0  0  0  0  0  0  0  0
  151.8463  141.2191  158.7409 H   0  0  0  0  0  0  0  0  0  0  0  0
  151.5126  142.6380  157.7338 H   0  0  0  0  0  0  0  0  0  0  0  0
  148.8608  142.9885  157.2217 H   0  0  0  0  0  0  0  0  0  0  0  0
  147.9701  141.5325  157.6322 H   0  0  0  0  0  0  0  0  0  0  0  0
  144.1876  133.9400  151.0615 H   0  0  0  0  0  0  0  0  0  0  0  0
  1  2  1  0  0  0  0
  1 31  1  0  0  0  0
  1 32  1  0  0  0  0
  1 33  1  0  0  0  0
  2 12  1  0  0  0  0
  2  3  1  0  0  0  0
  2 34  1  0  0  0  0
  3  4  1  0  0  0  0
  3 35  1  0  0  0  0
  3 36  1  0  0  0  0
  4  5  1  0  0  0  0
  4 10  1  0  0  0  0
  4 65  1  0  0  0  0
  5  6  1  0  0  0  0
  5 37  1  0  0  0  0
  5 38  1  0  0  0  0
  6  7  1  0  0  0  0
  6  8  1  0  0  0  0
  6  9  1  0  0  0  0
  7 39  1  0  0  0  0
  7 40  1  0  0  0  0
  7 41  1  0  0  0  0
  8 42  1  0  0  0  0
  8 43  1  0  0  0  0
  8 44  1  0  0  0  0
  9 45  1  0  0  0  0
 10 11  1  0  0  0  0
 10 46  1  0  0  0  0
 10 47  1  0  0  0  0
 11 12  1  0  0  0  0
 11 48  1  0  0  0  0
 11 49  1  0  0  0  0
 12 13  1  0  0  0  0
 13 18  1  0  0  0  0
 13 14  2  0  0  0  0
 14 15  1  0  0  0  0
 15 16  2  0  0  0  0
 15 50  1  0  0  0  0
 16 17  1  0  0  0  0
 17 21  1  0  0  0  0
 17 18  2  0  0  0  0
 18 19  1  0  0  0  0
 19 20  2  0  0  0  0
 20 21  1  0  0  0  0
 20 51  1  0  0  0  0
 21 22  1  0  0  0  0
 22 23  1  0  0  0  0
 22 52  1  0  0  0  0
 22 53  1  0  0  0  0
 23 24  1  0  0  0  0
 23 26  1  0  0  0  0
 23 54  1  0  0  0  0
 24 25  1  0  0  0  0
 24 55  1  0  0  0  0
 24 56  1  0  0  0  0
 25 57  1  0  0  0  0
 26 30  1  0  0  0  0
 26 27  1  0  0  0  0
 26 58  1  0  0  0  0
 27 28  1  0  0  0  0
 27 59  1  0  0  0  0
 27 60  1  0  0  0  0
 28 29  1  0  0  0  0
 28 61  1  0  0  0  0
 28 62  1  0  0  0  0
 29 30  1  0  0  0  0
 30 63  1  0  0  0  0
 30 64  1  0  0  0  0
M  CHG  1   4   1
M  END
> <s_m_source_file>
AV-unprocessed.smi

> <i_m_source_file_index>
212

> <i_lp_mmshare_version>
43012

> <i_f3d_flags>
0

> <s_epik_input>
W0NIM11bQ0BASF0xW0NIMl1OKFtDSDJdQyhbQ0gzXSkoW0NIM10pW09IXSlbQ0gyXVtDSDJdTjFjKG5bY0hdbjIpYyhjMjMpbltjSF1uM1tDSDJdW0NASF0oW0NIMl1bT0hdKVtDQEBIXTRbQ0gyXVtDSDJdT1tDSDJdNA==

> <s_epik_cmdline>
J2VwaWtfcHl0aG9uJywgJy1waCcsICc3LjAnLCAnLXRuJywgJzgnLCAnLW1hJywgJzIwMCcsICctbWV0YWxfYmluZGluZycsICctaW1hZScsICc8aW5maWxlLm1hZT4nLCAnLW9tYWUnLCAnPG91dGZpbGUubWFlPic=

> <r_lp_tautomer_probability>
1

> <r_epik_Ionization_Penalty>
0.00182193

> <r_epik_Ionization_Penalty_Charging>
0.00173996

> <r_epik_Ionization_Penalty_Neutral>
8.19718e-05

> <r_epik_State_Penalty>
-0

> <r_epik_Charging_Adjusted_Penalty>
0.00173996

> <i_epik_Tot_Q>
1

> <i_epik_Tot_abs_Q>
1

> <r_epik_Metal_State_Penalty>
-0

> <b_epik_Metal_Only>
0

> <s_lp_Force_Field>
OPLS_2005

> <r_lp_Energy>
60.7413

> <b_lp_Chiralities_Consistent>
1

> <s_lp_Variant>
AV-unprocessed.smi:212-6

> <Gold.Version>
5.8.1

> <Gold.Id.Protein>
6NUR|6NUR_protein|mol2

> <Gold.PLP.Fitness>
49.1491

> <Gold.PLP.PLP>
-40.3881

> <Gold.PLP.part.hbond>
-3.1279

> <Gold.PLP.part.metal>
0.0000

> <Gold.PLP.part.buried>
-2.1115

> <Gold.PLP.part.nonpolar>
-35.9484

> <Gold.PLP.part.repulsive>
0.4645

> <Gold.PLP.ligand.clash>
0.0000

> <Gold.PLP.ligand.torsion>
2.1404

> <Gold.PLP.Chemscore.Hbond>
3.0000

> <Gold.PLP.Chemscore.CHOScore>
1.0000

> <Gold.PLP.Chemscore.Metal>
0.0000

> <Gold.Chemscore.Hbonds>
donor molecule, donor type, donor heavy atom, donor atom, acceptor molecule, acceptor atom, score
      L1  H     9    45       P1 10747  1.00
      L1  H    25    57       P1  7957  1.00
      P1  H  7989  7998       L1    25  1.00
      L1  C    20    51       P1  7957  1.00

> <Gold.PLP.Chemscore.Internal.Correction>
1.0418

> <Gold.Rescore>
     Score         DG    S(hbond)    S(metal)    S(lipo)     H(rot)  DE(clash)    DE(int)     intcor
     12.57     -17.54       2.59        0.00     103.40       3.40       1.55       3.42       ----

> <Gold.Chemscore.Fitness>
12.5729

> <Gold.Chemscore.DG>
-17.5385

> <Gold.Chemscore.ZeroCoef>
-5.4800

> <Gold.Chemscore.Hbond>
2.5932

> <Gold.Chemscore.Metal>
0.0000

> <Gold.Chemscore.Lipo>
103.3978

> <Gold.Chemscore.Internal_Hbond>
0.0000

> <Gold.Chemscore.DEClash>
1.5467

> <Gold.Chemscore.DEInternal>
3.4189

> <Gold.Chemscore.Rot>
3.3986

> <Gold.Chemscore.Internal.Correction>
   9.000000E+99

> <Gold.Chemscore.Hbonds>
donor molecule, donor type, donor heavy atom, donor atom, acceptor molecule, acceptor atom, score
      L1  H     9    45       P1 10747  0.94
      L1  H    25    57       P1  7957  0.95
      P1  H  7989  7998       L1    25  0.37

> <Gold.Chemscore.Hbond.Weighted>
-8.6614

> <Gold.Chemscore.Metal.Weighted>
-0.0000

> <Gold.Chemscore.Lipo.Weighted>
-12.0975

> <Gold.Chemscore.Internal_Hbond.Weighted>
0.0000

> <Gold.Chemscore.DEClash.Weighted>
1.5467

> <Gold.Chemscore.DEInternal.Weighted>
3.4189

> <Gold.Chemscore.Rot.Weighted>
8.7005

> <Gold.Chemscore.Internal.Correction.Weighted>
   9.000000E+99

> <Gold.Protein.RotatedTorsions>
[ 6907 6896 6895 6894 ] final  -71.86 input  -60.11 | X-H torsion
[ 7974 7965 7964 7962 ] final -167.05 input  175.53 | X-H torsion
[ 8008 7997 7996 7995 ] final  144.53 input   59.86 | X-H torsion
[ 10167 10162 10161 10158 ] final -134.18 input  -65.29 | X-H torsion
[ 10718 10713 10712 10709 ] final   23.48 input   66.30 | X-H torsion
[ 10763 10752 10751 10750 ] final  101.64 input  -60.55 | X-H torsion
[ 11005 11000 10999 10996 ] final  -99.14 input  -57.11 | X-H torsion

> <Gold.Protein.ActiveResidues>
 VAL166  LYS551  ARG553  GLY616  TRP617  ASP618  TYR619  PRO620  LYS621  CYS622 
 ASP623  PHE694  ASN695  SER759  ASP760  ASP761  ALA762  ILE779  LEU786  VAL792 
 PHE793  MET794  SER795  GLU796  ALA797  LYS798  CYS799  TRP800  GLU811  SER814 

> <Gold.Protein.RotatedAtoms>
  150.7194  134.5246  159.5670 H   0  0  0  0  0  0  0  0  0  0  0  0  # atno 6907 bound_to 6896
  152.2793  134.7843  160.0408 H   0  0  0  0  0  0  0  0  0  0  0  0  # atno 6908 bound_to 6896
  151.8495  133.3402  159.3705 H   0  0  0  0  0  0  0  0  0  0  0  0  # atno 6909 bound_to 6896
  144.7231  140.2576  143.6269 H   0  0  0  0  0  0  0  0  0  0  0  0  # atno 7974 bound_to 7965
  156.2906  140.2233  156.5069 H   0  0  0  0  0  0  0  0  0  0  0  0  # atno 8008 bound_to 7997
  154.7642  140.0471  157.1020 H   0  0  0  0  0  0  0  0  0  0  0  0  # atno 8009 bound_to 7997
  154.9953  140.3095  155.4892 H   0  0  0  0  0  0  0  0  0  0  0  0  # atno 8010 bound_to 7997
  139.8907  143.6726  152.2612 H   0  0  0  0  0  0  0  0  0  0  0  0  # atno 10167 bound_to 10162
  157.1667  130.6741  149.6063 H   0  0  0  0  0  0  0  0  0  0  0  0  # atno 10718 bound_to 10713
  153.3293  135.4037  155.1482 H   0  0  0  0  0  0  0  0  0  0  0  0  # atno 10763 bound_to 10752
  154.8619  135.3606  154.5491 H   0  0  0  0  0  0  0  0  0  0  0  0  # atno 10764 bound_to 10752
  153.5929  135.7073  153.5475 H   0  0  0  0  0  0  0  0  0  0  0  0  # atno 10765 bound_to 10752
  141.1319  133.8299  157.0933 H   0  0  0  0  0  0  0  0  0  0  0  0  # atno 11005 bound_to 11000
  145.8167  139.2026  143.1962 LP  0  0  0  0  0  0  0  0  0  0  0  0  # atno 17320 bound_to 7965
  146.0549  140.8031  142.9763 LP  0  0  0  0  0  0  0  0  0  0  0  0  # atno 17321 bound_to 7965
  139.7113  144.7620  151.1108 LP  0  0  0  0  0  0  0  0  0  0  0  0  # atno 17342 bound_to 10162
  140.7727  143.5328  150.9404 LP  0  0  0  0  0  0  0  0  0  0  0  0  # atno 17343 bound_to 10162
  155.9745  130.4693  150.6390 LP  0  0  0  0  0  0  0  0  0  0  0  0  # atno 17370 bound_to 10713
  157.4082  131.0820  151.1246 LP  0  0  0  0  0  0  0  0  0  0  0  0  # atno 17371 bound_to 10713
  140.0379  134.9869  157.0906 LP  0  0  0  0  0  0  0  0  0  0  0  0  # atno 17394 bound_to 11000
  140.4182  134.1909  155.7164 LP  0  0  0  0  0  0  0  0  0  0  0  0  # atno 17395 bound_to 11000

$$$$
