AV-unprocessed.smi:479|AV-procd|sdf|2672|dock10
  -GOLD-   2262023 93D 1   1.00000     0.00000
 Structure written by MMmdl.
 45 47  0  0  0  0  0  0  0  0  1 V2000
  147.6471  136.3946  162.7980 C   0  0  0  0  0  0  0  0  0  0  0  0
  148.4422  136.5708  161.6352 O   0  0  0  0  0  0  0  0  0  0  0  0
  147.8158  136.5993  160.4060 C   0  0  0  0  0  0  0  0  0  0  0  0
  146.4075  136.5755  160.2414 C   0  0  0  0  0  0  0  0  0  0  0  0
  145.8242  136.6019  158.9537 C   0  0  0  0  0  0  0  0  0  0  0  0
  144.3458  136.5787  158.7574 C   0  0  0  0  0  0  0  0  0  0  0  0
  143.4576  136.7388  159.9904 C   0  0  0  0  0  0  0  0  0  0  0  0
  143.8093  136.4413  157.6583 O   0  0  0  0  0  0  0  0  0  0  0  0
  146.6701  136.6449  157.8254 C   0  0  0  0  0  0  0  0  0  0  0  0
  148.0673  136.6710  157.9785 C   0  0  0  0  0  0  0  0  0  0  0  0
  148.6513  136.6553  159.2682 C   0  0  0  0  0  0  0  0  0  0  0  0
  150.0117  136.6962  159.4934 O   0  0  0  0  0  0  0  0  0  0  0  0
  150.8430  137.3339  158.5318 C   0  0  0  0  0  0  0  0  0  0  0  0
  151.0540  138.8098  158.9194 C   0  0  2  0  0  0  0  0  0  0  0  0
  150.0643  139.6083  158.3052 O   0  0  0  0  0  0  0  0  0  0  0  0
  152.4584  139.3724  158.6159 C   0  0  0  0  0  0  0  0  0  0  0  0
  152.7065  140.6396  159.2812 N   0  0  0  0  0  0  0  0  0  0  0  0
  153.3967  140.8319  160.4216 C   0  0  0  0  0  0  0  0  0  0  0  0
  153.5240  142.0829  160.8546 N   0  0  0  0  0  0  0  0  0  0  0  0
  152.8265  142.7853  159.8869 C   0  0  0  0  0  0  0  0  0  0  0  0
  152.5855  144.1717  159.7556 C   0  0  0  0  0  0  0  0  0  0  0  0
  151.8354  144.6670  158.6686 C   0  0  0  0  0  0  0  0  0  0  0  0
  151.3110  143.7856  157.7012 C   0  0  0  0  0  0  0  0  0  0  0  0
  151.5355  142.4005  157.8135 C   0  0  0  0  0  0  0  0  0  0  0  0
  152.2924  141.9102  158.8934 C   0  0  0  0  0  0  0  0  0  0  0  0
  148.2886  136.4280  163.6784 H   0  0  0  0  0  0  0  0  0  0  0  0
  147.1434  135.4270  162.7942 H   0  0  0  0  0  0  0  0  0  0  0  0
  146.9073  137.1899  162.8998 H   0  0  0  0  0  0  0  0  0  0  0  0
  145.7678  136.5341  161.1085 H   0  0  0  0  0  0  0  0  0  0  0  0
  143.6186  135.9155  160.6866 H   0  0  0  0  0  0  0  0  0  0  0  0
  142.4053  136.7428  159.7048 H   0  0  0  0  0  0  0  0  0  0  0  0
  143.6750  137.6780  160.4991 H   0  0  0  0  0  0  0  0  0  0  0  0
  146.2568  136.6607  156.8271 H   0  0  0  0  0  0  0  0  0  0  0  0
  148.6709  136.7029  157.0844 H   0  0  0  0  0  0  0  0  0  0  0  0
  151.7997  136.8165  158.4425 H   0  0  0  0  0  0  0  0  0  0  0  0
  150.3597  137.3017  157.5540 H   0  0  0  0  0  0  0  0  0  0  0  0
  150.8791  138.8931  159.9927 H   0  0  0  0  0  0  0  0  0  0  0  0
  149.5178  139.0521  157.7713 H   0  0  0  0  0  0  0  0  0  0  0  0
  153.2254  138.6613  158.9249 H   0  0  0  0  0  0  0  0  0  0  0  0
  152.5850  139.5173  157.5423 H   0  0  0  0  0  0  0  0  0  0  0  0
  153.8398  140.0060  160.9587 H   0  0  0  0  0  0  0  0  0  0  0  0
  152.9799  144.8560  160.4920 H   0  0  0  0  0  0  0  0  0  0  0  0
  151.6599  145.7290  158.5780 H   0  0  0  0  0  0  0  0  0  0  0  0
  150.7371  144.1724  156.8717 H   0  0  0  0  0  0  0  0  0  0  0  0
  151.1354  141.7228  157.0748 H   0  0  0  0  0  0  0  0  0  0  0  0
  1  2  1  0  0  0  0
  1 26  1  0  0  0  0
  1 27  1  0  0  0  0
  1 28  1  0  0  0  0
  2  3  1  0  0  0  0
  3 11  1  0  0  0  0
  3  4  2  0  0  0  0
  4  5  1  0  0  0  0
  4 29  1  0  0  0  0
  5  6  1  0  0  0  0
  5  9  2  0  0  0  0
  6  7  1  0  0  0  0
  6  8  2  0  0  0  0
  7 30  1  0  0  0  0
  7 31  1  0  0  0  0
  7 32  1  0  0  0  0
  9 10  1  0  0  0  0
  9 33  1  0  0  0  0
 10 11  2  0  0  0  0
 10 34  1  0  0  0  0
 11 12  1  0  0  0  0
 12 13  1  0  0  0  0
 13 14  1  0  0  0  0
 13 35  1  0  0  0  0
 13 36  1  0  0  0  0
 14 15  1  0  0  0  0
 14 16  1  0  0  0  0
 14 37  1  0  0  0  0
 15 38  1  0  0  0  0
 16 17  1  0  0  0  0
 16 39  1  0  0  0  0
 16 40  1  0  0  0  0
 17 25  1  0  0  0  0
 17 18  1  0  0  0  0
 18 19  2  0  0  0  0
 18 41  1  0  0  0  0
 19 20  1  0  0  0  0
 20 25  2  0  0  0  0
 20 21  1  0  0  0  0
 21 22  2  0  0  0  0
 21 42  1  0  0  0  0
 22 23  1  0  0  0  0
 22 43  1  0  0  0  0
 23 24  2  0  0  0  0
 23 44  1  0  0  0  0
 24 25  1  0  0  0  0
 24 45  1  0  0  0  0
M  END
> <s_m_source_file>
AV-unprocessed.smi

> <i_m_source_file_index>
479

> <i_lp_mmshare_version>
43012

> <i_f3d_flags>
0

> <s_epik_input>
W0NIM11PYzFbY0hdYyhDKD1PKVtDSDNdKVtjSF1bY0hdYzFPW0NIMl1bQ0BIXShbT0hdKVtDSDJdbihbY0hdbjIpYyhjMjMpW2NIXVtjSF1bY0hdW2NIXTM=

> <s_epik_cmdline>
J2VwaWtfcHl0aG9uJywgJy1waCcsICc3LjAnLCAnLXRuJywgJzgnLCAnLW1hJywgJzIwMCcsICctbWV0YWxfYmluZGluZycsICctaW1hZScsICc8aW5maWxlLm1hZT4nLCAnLW9tYWUnLCAnPG91dGZpbGUubWFlPic=

> <r_lp_tautomer_probability>
0.99995

> <r_epik_Ionization_Penalty>
0.061028

> <r_epik_Ionization_Penalty_Charging>
0

> <r_epik_Ionization_Penalty_Neutral>
0.061028

> <r_epik_State_Penalty>
0.052945

> <r_epik_Charging_Adjusted_Penalty>
0.052945

> <i_epik_Tot_Q>
0

> <i_epik_Tot_abs_Q>
0

> <r_epik_Metal_State_Penalty>
5.53801e-05

> <b_epik_Metal_Only>
0

> <s_lp_Force_Field>
OPLS_2005

> <r_lp_Energy>
25.674

> <b_lp_Chiralities_Consistent>
1

> <s_lp_Variant>
AV-unprocessed.smi:479-1

> <Gold.Version>
5.8.1

> <Gold.Id.Protein>
6NUR|6NUR_protein|mol2

> <Gold.PLP.Fitness>
45.6768

> <Gold.PLP.PLP>
-42.4347

> <Gold.PLP.part.hbond>
-1.9810

> <Gold.PLP.part.metal>
0.0000

> <Gold.PLP.part.buried>
-6.9267

> <Gold.PLP.part.nonpolar>
-34.1261

> <Gold.PLP.part.repulsive>
0.0000

> <Gold.PLP.ligand.clash>
0.0000

> <Gold.PLP.ligand.torsion>
1.4646

> <Gold.PLP.Chemscore.Hbond>
2.0000

> <Gold.PLP.Chemscore.CHOScore>
0.0000

> <Gold.PLP.Chemscore.Metal>
0.0000

> <Gold.Chemscore.Hbonds>
donor molecule, donor type, donor heavy atom, donor atom, acceptor molecule, acceptor atom, score
      P1  H  6896  6909       L1    12  1.00
      P1  H  6931  6943       L1     2  1.00

> <Gold.PLP.Chemscore.Internal.Correction>
0.1712

> <Gold.Rescore>
     Score         DG    S(hbond)    S(metal)    S(lipo)     H(rot)  DE(clash)    DE(int)     intcor
     12.50     -14.37       0.90        0.00     108.45       2.66       0.15       1.72       ----

> <Gold.Chemscore.Fitness>
12.4997

> <Gold.Chemscore.DG>
-14.3695

> <Gold.Chemscore.ZeroCoef>
-5.4800

> <Gold.Chemscore.Hbond>
0.8979

> <Gold.Chemscore.Metal>
0.0000

> <Gold.Chemscore.Lipo>
108.4486

> <Gold.Chemscore.Internal_Hbond>
0.0000

> <Gold.Chemscore.DEClash>
0.1465

> <Gold.Chemscore.DEInternal>
1.7233

> <Gold.Chemscore.Rot>
2.6555

> <Gold.Chemscore.Internal.Correction>
   9.000000E+99

> <Gold.Chemscore.Hbonds>
donor molecule, donor type, donor heavy atom, donor atom, acceptor molecule, acceptor atom, score
      P1  H  6896  6909       L1    12  0.32
      P1  H  6931  6943       L1     2  0.14

> <Gold.Chemscore.Hbond.Weighted>
-2.9990

> <Gold.Chemscore.Metal.Weighted>
-0.0000

> <Gold.Chemscore.Lipo.Weighted>
-12.6885

> <Gold.Chemscore.Internal_Hbond.Weighted>
0.0000

> <Gold.Chemscore.DEClash.Weighted>
0.1465

> <Gold.Chemscore.DEInternal.Weighted>
1.7233

> <Gold.Chemscore.Rot.Weighted>
6.7980

> <Gold.Chemscore.Internal.Correction.Weighted>
   9.000000E+99

> <Gold.Protein.RotatedTorsions>
[ 6907 6896 6895 6894 ] final   78.57 input  -60.11 | X-H torsion
[ 7974 7965 7964 7962 ] final   74.61 input  175.53 | X-H torsion
[ 8008 7997 7996 7995 ] final -112.21 input   59.86 | X-H torsion
[ 10167 10162 10161 10158 ] final  -70.36 input  -65.29 | X-H torsion
[ 10718 10713 10712 10709 ] final -169.47 input   66.30 | X-H torsion
[ 10763 10752 10751 10750 ] final  -99.10 input  -60.55 | X-H torsion
[ 11005 11000 10999 10996 ] final -105.83 input  -57.11 | X-H torsion

> <Gold.Protein.ActiveResidues>
 VAL166  LYS551  ARG553  GLY616  TRP617  ASP618  TYR619  PRO620  LYS621  CYS622 
 ASP623  PHE694  ASN695  SER759  ASP760  ASP761  ALA762  ILE779  LEU786  VAL792 
 PHE793  MET794  SER795  GLU796  ALA797  LYS798  CYS799  TRP800  GLU811  SER814 

> <Gold.Protein.RotatedAtoms>
  152.5165  134.3643  159.9295 H   0  0  0  0  0  0  0  0  0  0  0  0  # atno 6907 bound_to 6896
  151.3596  133.3888  159.2696 H   0  0  0  0  0  0  0  0  0  0  0  0  # atno 6908 bound_to 6896
  150.9662  134.9061  159.7819 H   0  0  0  0  0  0  0  0  0  0  0  0  # atno 6909 bound_to 6896
  145.7261  139.2666  143.1568 H   0  0  0  0  0  0  0  0  0  0  0  0  # atno 7974 bound_to 7965
  155.0018  140.0394  157.2363 H   0  0  0  0  0  0  0  0  0  0  0  0  # atno 8008 bound_to 7997
  154.7537  140.2771  155.6248 H   0  0  0  0  0  0  0  0  0  0  0  0  # atno 8009 bound_to 7997
  156.2890  140.2642  156.2298 H   0  0  0  0  0  0  0  0  0  0  0  0  # atno 8010 bound_to 7997
  140.5358  143.2318  151.7179 H   0  0  0  0  0  0  0  0  0  0  0  0  # atno 10167 bound_to 10162
  156.7120  130.9237  151.3090 H   0  0  0  0  0  0  0  0  0  0  0  0  # atno 10718 bound_to 10713
  154.7470  135.4985  153.9221 H   0  0  0  0  0  0  0  0  0  0  0  0  # atno 10763 bound_to 10752
  153.1102  135.6707  153.9522 H   0  0  0  0  0  0  0  0  0  0  0  0  # atno 10764 bound_to 10752
  153.9283  135.3080  155.3425 H   0  0  0  0  0  0  0  0  0  0  0  0  # atno 10765 bound_to 10752
  141.1034  133.8841  157.1781 H   0  0  0  0  0  0  0  0  0  0  0  0  # atno 11005 bound_to 11000
  146.0581  140.7999  142.9748 LP  0  0  0  0  0  0  0  0  0  0  0  0  # atno 17320 bound_to 7965
  144.6904  140.3155  143.7241 LP  0  0  0  0  0  0  0  0  0  0  0  0  # atno 17321 bound_to 7965
  139.4970  144.4044  152.0147 LP  0  0  0  0  0  0  0  0  0  0  0  0  # atno 17342 bound_to 10162
  140.3150  144.3494  150.6024 LP  0  0  0  0  0  0  0  0  0  0  0  0  # atno 17343 bound_to 10162
  157.6932  130.9255  150.0572 LP  0  0  0  0  0  0  0  0  0  0  0  0  # atno 17370 bound_to 10713
  156.1654  130.3645  149.9239 LP  0  0  0  0  0  0  0  0  0  0  0  0  # atno 17371 bound_to 10713
  139.9895  135.0070  156.9941 LP  0  0  0  0  0  0  0  0  0  0  0  0  # atno 17394 bound_to 11000
  140.4963  134.1142  155.7242 LP  0  0  0  0  0  0  0  0  0  0  0  0  # atno 17395 bound_to 11000

$$$$
