AV-unprocessed.smi:1554|AV-procd|sdf|6242|dock1
  -GOLD-   22720 6423D 1   1.00000     0.00000
 Structure written by MMmdl.
 47 49  0  0  0  0  0  0  0  0  1 V2000
  153.1459  142.7717  161.4089 C   0  0  0  0  0  0  0  0  0  0  0  0
  152.5197  142.5533  160.0427 C   0  0  0  0  0  0  0  0  0  0  0  0
  152.7869  141.3518  159.3484 C   0  0  0  0  0  0  0  0  0  0  0  0
  152.2277  141.1117  158.0741 C   0  0  0  0  0  0  0  0  0  0  0  0
  152.3540  140.0233  157.2279 N   0  0  0  0  0  0  0  0  0  0  0  0
  151.6037  140.3980  156.1958 C   0  0  0  0  0  0  0  0  0  0  0  0
  151.0046  141.6015  156.2734 N   0  0  0  0  0  0  0  0  0  0  0  0
  150.1521  142.2172  155.2720 C   0  0  0  0  0  0  0  0  0  0  0  0
  149.1631  141.2140  154.6436 C   0  0  2  0  0  0  0  0  0  0  0  0
  149.7975  140.5292  153.5817 O   0  0  0  0  0  0  0  0  0  0  0  0
  147.9045  141.8970  154.0724 C   0  0  0  0  0  0  0  0  0  0  0  0
  147.0120  142.5070  155.0588 N   0  0  0  0  0  0  0  0  0  0  0  0
  146.3616  141.5193  155.9174 C   0  0  0  0  0  0  0  0  0  0  0  0
  145.4005  142.1766  156.9227 C   0  0  0  0  0  0  0  0  0  0  0  0
  144.4390  142.9606  156.2244 O   0  0  0  0  0  0  0  0  0  0  0  0
  145.0307  143.9732  155.4157 C   0  0  2  0  0  0  0  0  0  0  0  0
  143.9080  144.7558  154.7268 C   0  0  0  0  0  0  0  0  0  0  0  0
  145.9864  143.3117  154.4036 C   0  0  0  0  0  0  0  0  0  0  0  0
  151.3872  142.1147  157.5084 C   0  0  0  0  0  0  0  0  0  0  0  0
  151.1120  143.3132  158.1906 C   0  0  0  0  0  0  0  0  0  0  0  0
  151.6782  143.5366  159.4631 C   0  0  0  0  0  0  0  0  0  0  0  0
  151.3752  144.8343  160.1911 C   0  0  0  0  0  0  0  0  0  0  0  0
  153.7926  141.9393  161.6886 H   0  0  0  0  0  0  0  0  0  0  0  0
  152.3732  142.8676  162.1721 H   0  0  0  0  0  0  0  0  0  0  0  0
  153.7507  143.6789  161.4115 H   0  0  0  0  0  0  0  0  0  0  0  0
  153.4279  140.6026  159.7894 H   0  0  0  0  0  0  0  0  0  0  0  0
  151.4840  139.7623  155.3305 H   0  0  0  0  0  0  0  0  0  0  0  0
  149.6097  143.0351  155.7478 H   0  0  0  0  0  0  0  0  0  0  0  0
  150.7818  142.6685  154.5041 H   0  0  0  0  0  0  0  0  0  0  0  0
  148.8857  140.4603  155.3801 H   0  0  0  0  0  0  0  0  0  0  0  0
  149.1448  140.0345  153.1105 H   0  0  0  0  0  0  0  0  0  0  0  0
  148.2319  142.6648  153.3696 H   0  0  0  0  0  0  0  0  0  0  0  0
  147.3409  141.1745  153.4794 H   0  0  0  0  0  0  0  0  0  0  0  0
  145.8099  140.8030  155.3064 H   0  0  0  0  0  0  0  0  0  0  0  0
  147.1052  140.9497  156.4735 H   0  0  0  0  0  0  0  0  0  0  0  0
  144.8829  141.4154  157.5063 H   0  0  0  0  0  0  0  0  0  0  0  0
  145.9482  142.8041  157.6275 H   0  0  0  0  0  0  0  0  0  0  0  0
  145.5920  144.6550  156.0569 H   0  0  0  0  0  0  0  0  0  0  0  0
  144.3113  145.5543  154.1034 H   0  0  0  0  0  0  0  0  0  0  0  0
  143.2433  145.2109  155.4612 H   0  0  0  0  0  0  0  0  0  0  0  0
  143.3064  144.1053  154.0911 H   0  0  0  0  0  0  0  0  0  0  0  0
  146.4583  144.0857  153.7969 H   0  0  0  0  0  0  0  0  0  0  0  0
  145.4114  142.6873  153.7175 H   0  0  0  0  0  0  0  0  0  0  0  0
  150.4727  144.0553  157.7362 H   0  0  0  0  0  0  0  0  0  0  0  0
  150.7006  145.4667  159.6134 H   0  0  0  0  0  0  0  0  0  0  0  0
  152.2924  145.3967  160.3675 H   0  0  0  0  0  0  0  0  0  0  0  0
  150.9024  144.6315  161.1523 H   0  0  0  0  0  0  0  0  0  0  0  0
  1  2  1  0  0  0  0
  1 23  1  0  0  0  0
  1 24  1  0  0  0  0
  1 25  1  0  0  0  0
  2 21  1  0  0  0  0
  2  3  2  0  0  0  0
  3  4  1  0  0  0  0
  3 26  1  0  0  0  0
  4 19  2  0  0  0  0
  4  5  1  0  0  0  0
  5  6  2  0  0  0  0
  6  7  1  0  0  0  0
  6 27  1  0  0  0  0
  7  8  1  0  0  0  0
  7 19  1  0  0  0  0
  8  9  1  0  0  0  0
  8 28  1  0  0  0  0
  8 29  1  0  0  0  0
  9 10  1  0  0  0  0
  9 11  1  0  0  0  0
  9 30  1  0  0  0  0
 10 31  1  0  0  0  0
 11 12  1  0  0  0  0
 11 32  1  0  0  0  0
 11 33  1  0  0  0  0
 12 18  1  0  0  0  0
 12 13  1  0  0  0  0
 13 14  1  0  0  0  0
 13 34  1  0  0  0  0
 13 35  1  0  0  0  0
 14 15  1  0  0  0  0
 14 36  1  0  0  0  0
 14 37  1  0  0  0  0
 15 16  1  0  0  0  0
 16 17  1  0  0  0  0
 16 18  1  0  0  0  0
 16 38  1  0  0  0  0
 17 39  1  0  0  0  0
 17 40  1  0  0  0  0
 17 41  1  0  0  0  0
 18 42  1  0  0  0  0
 18 43  1  0  0  0  0
 19 20  1  0  0  0  0
 20 21  2  0  0  0  0
 20 44  1  0  0  0  0
 21 22  1  0  0  0  0
 22 45  1  0  0  0  0
 22 46  1  0  0  0  0
 22 47  1  0  0  0  0
M  END
> <s_m_source_file>
AV-unprocessed.smi

> <i_m_source_file_index>
1554

> <i_lp_mmshare_version>
43012

> <i_f3d_flags>
0

> <s_epik_input>
W0NIM11jKFtjSF0xKWMoW0NIM10pW2NIXWMoYzEyKW4oW2NIXW4yKVtDSDJdW0NASF0oW09IXSlbQ0gyXU4zW0NIMl1bQ0gyXU9bQ0BASF0oW0NIM10pW0NIMl0z

> <s_epik_cmdline>
J2VwaWtfcHl0aG9uJywgJy1waCcsICc3LjAnLCAnLXRuJywgJzgnLCAnLW1hJywgJzIwMCcsICctbWV0YWxfYmluZGluZycsICctaW1hZScsICc8aW5maWxlLm1hZT4nLCAnLW9tYWUnLCAnPG91dGZpbGUubWFlPic=

> <r_epik_Ionization_Penalty>
0.345108

> <r_epik_Ionization_Penalty_Charging>
0

> <r_epik_Ionization_Penalty_Neutral>
0.345108

> <r_epik_State_Penalty>
0.314544

> <r_epik_Charging_Adjusted_Penalty>
0.314544

> <i_epik_Tot_Q>
0

> <i_epik_Tot_abs_Q>
0

> <r_epik_Metal_State_Penalty>
0.239719

> <b_epik_Metal_Only>
0

> <s_lp_Force_Field>
OPLS_2005

> <r_lp_Energy>
27.3157

> <b_lp_Chiralities_Consistent>
1

> <s_lp_Variant>
AV-unprocessed.smi:1554-3

> <Gold.Version>
5.8.1

> <Gold.Id.Protein>
6NUR|6NUR_protein|mol2

> <Gold.PLP.Fitness>
50.2289

> <Gold.PLP.PLP>
-45.7243

> <Gold.PLP.part.hbond>
-3.2047

> <Gold.PLP.part.metal>
0.0000

> <Gold.PLP.part.buried>
-4.7505

> <Gold.PLP.part.nonpolar>
-37.4123

> <Gold.PLP.part.repulsive>
0.8543

> <Gold.PLP.ligand.clash>
0.0000

> <Gold.PLP.ligand.torsion>
0.5845

> <Gold.PLP.Chemscore.Hbond>
1.8669

> <Gold.PLP.Chemscore.CHOScore>
0.0000

> <Gold.PLP.Chemscore.Metal>
0.0000

> <Gold.Chemscore.Hbonds>
donor molecule, donor type, donor heavy atom, donor atom, acceptor molecule, acceptor atom, score
      L1  H    10    31       P1  7957  0.18
      P1  H  7989  7998       L1    10  0.50
      P1  H  7997  8008       L1     5  0.81
      P1  H  8011  8017       L1    10  0.23

> <Gold.PLP.Chemscore.Internal.Correction>
0.0728

> <Gold.Rescore>
     Score         DG    S(hbond)    S(metal)    S(lipo)     H(rot)  DE(clash)    DE(int)     intcor
     16.83     -18.89       1.28        0.00     121.49       1.98       1.54       0.52       ----

> <Gold.Chemscore.Fitness>
16.8269

> <Gold.Chemscore.DG>
-18.8887

> <Gold.Chemscore.ZeroCoef>
-5.4800

> <Gold.Chemscore.Hbond>
1.2800

> <Gold.Chemscore.Metal>
0.0000

> <Gold.Chemscore.Lipo>
121.4909

> <Gold.Chemscore.Internal_Hbond>
0.0000

> <Gold.Chemscore.DEClash>
1.5369

> <Gold.Chemscore.DEInternal>
0.5249

> <Gold.Chemscore.Rot>
1.9848

> <Gold.Chemscore.Internal.Correction>
   9.000000E+99

> <Gold.Chemscore.Hbonds>
donor molecule, donor type, donor heavy atom, donor atom, acceptor molecule, acceptor atom, score
      L1  H    10    31       P1  7957  0.18
      P1  H  7989  7998       L1    10  0.43
      P1  H  7997  8008       L1     5  0.21

> <Gold.Chemscore.Hbond.Weighted>
-4.2753

> <Gold.Chemscore.Metal.Weighted>
-0.0000

> <Gold.Chemscore.Lipo.Weighted>
-14.2144

> <Gold.Chemscore.Internal_Hbond.Weighted>
0.0000

> <Gold.Chemscore.DEClash.Weighted>
1.5369

> <Gold.Chemscore.DEInternal.Weighted>
0.5249

> <Gold.Chemscore.Rot.Weighted>
5.0810

> <Gold.Chemscore.Internal.Correction.Weighted>
   9.000000E+99

> <Gold.Protein.RotatedTorsions>
[ 6907 6896 6895 6894 ] final   84.40 input  -60.11 | X-H torsion
[ 7974 7965 7964 7962 ] final -162.30 input  175.53 | X-H torsion
[ 8008 7997 7996 7995 ] final  -59.52 input   59.86 | X-H torsion
[ 10167 10162 10161 10158 ] final -118.83 input  -65.29 | X-H torsion
[ 10718 10713 10712 10709 ] final   55.68 input   66.30 | X-H torsion
[ 10763 10752 10751 10750 ] final -121.55 input  -60.55 | X-H torsion
[ 11005 11000 10999 10996 ] final  136.10 input  -57.11 | X-H torsion

> <Gold.Protein.ActiveResidues>
 VAL166  LYS551  ARG553  GLY616  TRP617  ASP618  TYR619  PRO620  LYS621  CYS622 
 ASP623  PHE694  ASN695  SER759  ASP760  ASP761  ALA762  ILE779  LEU786  VAL792 
 PHE793  MET794  SER795  GLU796  ALA797  LYS798  CYS799  TRP800  GLU811  SER814 

> <Gold.Protein.RotatedAtoms>
  152.5351  134.2747  159.8984 H   0  0  0  0  0  0  0  0  0  0  0  0  # atno 6907 bound_to 6896
  151.2702  133.4252  159.2628 H   0  0  0  0  0  0  0  0  0  0  0  0  # atno 6908 bound_to 6896
  151.0374  134.9598  159.8200 H   0  0  0  0  0  0  0  0  0  0  0  0  # atno 6909 bound_to 6896
  144.7362  140.3272  143.6160 H   0  0  0  0  0  0  0  0  0  0  0  0  # atno 7974 bound_to 7965
  154.4356  140.1060  156.6128 H   0  0  0  0  0  0  0  0  0  0  0  0  # atno 8008 bound_to 7997
  155.5791  140.3490  155.4516 H   0  0  0  0  0  0  0  0  0  0  0  0  # atno 8009 bound_to 7997
  156.0332  140.1265  157.0225 H   0  0  0  0  0  0  0  0  0  0  0  0  # atno 8010 bound_to 7997
  140.0532  143.5039  152.2071 H   0  0  0  0  0  0  0  0  0  0  0  0  # atno 10167 bound_to 10162
  157.5366  130.8668  149.8762 H   0  0  0  0  0  0  0  0  0  0  0  0  # atno 10718 bound_to 10713
  154.8671  135.4164  154.2639 H   0  0  0  0  0  0  0  0  0  0  0  0  # atno 10763 bound_to 10752
  153.3561  135.7001  153.6755 H   0  0  0  0  0  0  0  0  0  0  0  0  # atno 10764 bound_to 10752
  153.5674  135.3598  155.2796 H   0  0  0  0  0  0  0  0  0  0  0  0  # atno 10765 bound_to 10752
  140.0023  134.9473  157.0099 H   0  0  0  0  0  0  0  0  0  0  0  0  # atno 11005 bound_to 11000
  145.7509  139.1793  143.2322 LP  0  0  0  0  0  0  0  0  0  0  0  0  # atno 17320 bound_to 7965
  146.1062  140.7484  142.9525 LP  0  0  0  0  0  0  0  0  0  0  0  0  # atno 17321 bound_to 7965
  139.5940  144.7560  151.3332 LP  0  0  0  0  0  0  0  0  0  0  0  0  # atno 17342 bound_to 10162
  140.7207  143.7144  150.7744 LP  0  0  0  0  0  0  0  0  0  0  0  0  # atno 17343 bound_to 10162
  156.0463  130.3727  150.1308 LP  0  0  0  0  0  0  0  0  0  0  0  0  # atno 17370 bound_to 10713
  156.9490  130.9769  151.3502 LP  0  0  0  0  0  0  0  0  0  0  0  0  # atno 17371 bound_to 10713
  140.4705  134.1391  155.7202 LP  0  0  0  0  0  0  0  0  0  0  0  0  # atno 17394 bound_to 11000
  141.1651  133.8718  157.1737 LP  0  0  0  0  0  0  0  0  0  0  0  0  # atno 17395 bound_to 11000

$$$$
