AV-unprocessed.smi:1809|AV-procd|sdf|7321|dock5
  -GOLD-   22720 8573D 1   1.00000     0.00000
 Structure written by MMmdl.
 39 41  0  0  0  0  0  0  0  0  3 V2000
  146.0955  133.4528  162.0506 C   0  0  0  0  0  0  0  0  0  0  0  0
  147.0209  134.3803  161.3405 C   0  0  0  0  0  0  0  0  0  0  0  0
  147.7282  134.0139  160.2691 N   0  0  0  0  0  0  0  0  0  0  0  0
  148.5135  135.0488  159.7823 N   0  0  0  0  0  0  0  0  0  0  0  0
  148.3820  136.1837  160.4833 C   0  0  0  0  0  0  0  0  0  0  0  0
  149.0600  137.3018  160.1747 N   0  5  0  0  0  0  0  0  0  0  0  0
  150.0335  137.2657  159.2375 C   0  0  0  0  0  0  0  0  0  0  0  0
  150.0563  136.5507  158.2329 O   0  0  0  0  0  0  0  0  0  0  0  0
  151.0423  138.1156  159.4755 N   0  0  0  0  0  0  0  0  0  0  0  0
  152.2156  138.3012  158.6288 C   0  0  0  0  0  0  0  0  0  0  0  0
  152.3876  139.7716  158.2115 C   0  0  2  0  0  0  0  0  0  0  0  0
  152.6807  140.6851  159.4241 C   0  0  0  0  0  0  0  0  0  0  0  0
  152.7257  142.0791  158.9471 N   0  3  2  0  0  0  0  0  0  0  0  0
  153.0178  143.1442  159.9212 C   0  0  0  0  0  0  0  0  0  0  0  0
  152.4203  144.4215  159.2973 C   0  0  0  0  0  0  0  0  0  0  0  0
  151.6431  143.9553  158.0521 C   0  0  0  0  0  0  0  0  0  0  0  0
  151.4720  142.4586  158.2922 C   0  0  1  0  0  0  0  0  0  0  0  0
  151.2461  141.5478  157.0785 C   0  0  0  0  0  0  0  0  0  0  0  0
  151.1882  140.2032  157.5568 O   0  0  0  0  0  0  0  0  0  0  0  0
  147.2650  136.0453  161.8412 S   0  0  0  0  0  0  0  0  0  0  0  0
  145.1528  133.3810  161.5082 H   0  0  0  0  0  0  0  0  0  0  0  0
  145.8942  133.8168  163.0582 H   0  0  0  0  0  0  0  0  0  0  0  0
  146.5371  132.4585  162.1215 H   0  0  0  0  0  0  0  0  0  0  0  0
  150.9853  138.6807  160.3103 H   0  0  0  0  0  0  0  0  0  0  0  0
  153.0940  137.9606  159.1775 H   0  0  0  0  0  0  0  0  0  0  0  0
  152.1343  137.6619  157.7480 H   0  0  0  0  0  0  0  0  0  0  0  0
  153.2172  139.8518  157.5067 H   0  0  0  0  0  0  0  0  0  0  0  0
  151.9097  140.5748  160.1882 H   0  0  0  0  0  0  0  0  0  0  0  0
  153.6353  140.4223  159.8812 H   0  0  0  0  0  0  0  0  0  0  0  0
  152.5271  142.9254  160.8709 H   0  0  0  0  0  0  0  0  0  0  0  0
  154.0898  143.2265  160.1020 H   0  0  0  0  0  0  0  0  0  0  0  0
  151.7561  144.9125  160.0096 H   0  0  0  0  0  0  0  0  0  0  0  0
  153.1963  145.1379  159.0248 H   0  0  0  0  0  0  0  0  0  0  0  0
  150.6918  144.4737  157.9276 H   0  0  0  0  0  0  0  0  0  0  0  0
  152.2405  144.1274  157.1554 H   0  0  0  0  0  0  0  0  0  0  0  0
  150.6518  142.3163  158.9999 H   0  0  0  0  0  0  0  0  0  0  0  0
  150.3068  141.7941  156.5833 H   0  0  0  0  0  0  0  0  0  0  0  0
  152.0434  141.6556  156.3414 H   0  0  0  0  0  0  0  0  0  0  0  0
  153.4450  142.1310  158.2395 H   0  0  0  0  0  0  0  0  0  0  0  0
  1  2  1  0  0  0  0
  1 21  1  0  0  0  0
  1 22  1  0  0  0  0
  1 23  1  0  0  0  0
  2 20  1  0  0  0  0
  2  3  2  0  0  0  0
  3  4  1  0  0  0  0
  4  5  2  0  0  0  0
  5  6  1  0  0  0  0
  5 20  1  0  0  0  0
  6  7  1  0  0  0  0
  7  8  2  0  0  0  0
  7  9  1  0  0  0  0
  9 10  1  0  0  0  0
  9 24  1  0  0  0  0
 10 11  1  0  0  0  0
 10 25  1  0  0  0  0
 10 26  1  0  0  0  0
 11 19  1  0  0  0  0
 11 12  1  0  0  0  0
 11 27  1  0  0  0  0
 12 13  1  0  0  0  0
 12 28  1  0  0  0  0
 12 29  1  0  0  0  0
 13 17  1  0  0  0  0
 13 14  1  0  0  0  0
 13 39  1  0  0  0  0
 14 15  1  0  0  0  0
 14 30  1  0  0  0  0
 14 31  1  0  0  0  0
 15 16  1  0  0  0  0
 15 32  1  0  0  0  0
 15 33  1  0  0  0  0
 16 17  1  0  0  0  0
 16 34  1  0  0  0  0
 16 35  1  0  0  0  0
 17 18  1  0  0  0  0
 17 36  1  0  0  0  0
 18 19  1  0  0  0  0
 18 37  1  0  0  0  0
 18 38  1  0  0  0  0
M  CHG  1   6  -1
M  CHG  1  13   1
M  END
> <s_m_source_file>
AV-unprocessed.smi

> <i_m_source_file_index>
1809

> <i_lp_mmshare_version>
43012

> <i_f3d_flags>
0

> <s_epik_input>
W0NIM11jMW5uYyhzMSlbTkhdQyg9TylbTkhdW0NIMl1bQ0BIXShbQ0gyXTIpT1tDSDJdW0NAQEhdKE4yMylbQ0gyXVtDSDJdW0NIMl0z

> <s_epik_cmdline>
J2VwaWtfcHl0aG9uJywgJy1waCcsICc3LjAnLCAnLXRuJywgJzgnLCAnLW1hJywgJzIwMCcsICctbWV0YWxfYmluZGluZycsICctaW1hZScsICc8aW5maWxlLm1hZT4nLCAnLW9tYWUnLCAnPG91dGZpbGUubWFlPic=

> <r_lp_tautomer_probability>
1

> <r_epik_Ionization_Penalty>
3.2601

> <r_epik_Ionization_Penalty_Charging>
3.1406

> <r_epik_Ionization_Penalty_Neutral>
0.119497

> <r_epik_State_Penalty>
3.08894

> <r_epik_Charging_Adjusted_Penalty>
6.22954

> <i_epik_Tot_Q>
0

> <i_epik_Tot_abs_Q>
2

> <r_epik_Metal_State_Penalty>
0.510807

> <b_epik_Metal_Only>
1

> <s_lp_Force_Field>
OPLS_2005

> <r_lp_Energy>
28.6606

> <b_lp_Chiralities_Consistent>
1

> <s_lp_Variant>
AV-unprocessed.smi:1809-13

> <Gold.Version>
5.8.1

> <Gold.Id.Protein>
6NUR|6NUR_protein|mol2

> <Gold.PLP.Fitness>
41.3032

> <Gold.PLP.PLP>
-36.5209

> <Gold.PLP.part.hbond>
-2.4888

> <Gold.PLP.part.metal>
0.0000

> <Gold.PLP.part.buried>
-5.3755

> <Gold.PLP.part.nonpolar>
-30.1483

> <Gold.PLP.part.repulsive>
0.2825

> <Gold.PLP.ligand.clash>
0.0000

> <Gold.PLP.ligand.torsion>
0.2615

> <Gold.PLP.Chemscore.Hbond>
1.7650

> <Gold.PLP.Chemscore.CHOScore>
0.0000

> <Gold.PLP.Chemscore.Metal>
0.0000

> <Gold.Chemscore.Hbonds>
donor molecule, donor type, donor heavy atom, donor atom, acceptor molecule, acceptor atom, score
      P1  H  6896  6907       L1     4  0.53
      P1  H  6931  6943       L1     6  0.90

> <Gold.PLP.Chemscore.Internal.Correction>
0.0103

> <Gold.Rescore>
     Score         DG    S(hbond)    S(metal)    S(lipo)     H(rot)  DE(clash)    DE(int)     intcor
     14.34     -16.15       1.00        0.00      91.53       1.32       0.01       1.80       ----

> <Gold.Chemscore.Fitness>
14.3385

> <Gold.Chemscore.DG>
-16.1477

> <Gold.Chemscore.ZeroCoef>
-5.4800

> <Gold.Chemscore.Hbond>
1.0027

> <Gold.Chemscore.Metal>
0.0000

> <Gold.Chemscore.Lipo>
91.5346

> <Gold.Chemscore.Internal_Hbond>
0.0000

> <Gold.Chemscore.DEClash>
0.0081

> <Gold.Chemscore.DEInternal>
1.8011

> <Gold.Chemscore.Rot>
1.3246

> <Gold.Chemscore.Internal.Correction>
   9.000000E+99

> <Gold.Chemscore.Hbonds>
donor molecule, donor type, donor heavy atom, donor atom, acceptor molecule, acceptor atom, score
      P1  H  6896  6907       L1     4  0.35
      P1  H  6931  6943       L1     6  0.16

> <Gold.Chemscore.Hbond.Weighted>
-3.3492

> <Gold.Chemscore.Metal.Weighted>
-0.0000

> <Gold.Chemscore.Lipo.Weighted>
-10.7095

> <Gold.Chemscore.Internal_Hbond.Weighted>
0.0000

> <Gold.Chemscore.DEClash.Weighted>
0.0081

> <Gold.Chemscore.DEInternal.Weighted>
1.8011

> <Gold.Chemscore.Rot.Weighted>
3.3910

> <Gold.Chemscore.Internal.Correction.Weighted>
   9.000000E+99

> <Gold.Protein.RotatedTorsions>
[ 6907 6896 6895 6894 ] final  -76.14 input  -60.11 | X-H torsion
[ 7974 7965 7964 7962 ] final  -72.65 input  175.53 | X-H torsion
[ 8008 7997 7996 7995 ] final -117.84 input   59.86 | X-H torsion
[ 10167 10162 10161 10158 ] final  176.65 input  -65.29 | X-H torsion
[ 10718 10713 10712 10709 ] final  -60.48 input   66.30 | X-H torsion
[ 10763 10752 10751 10750 ] final   -7.55 input  -60.55 | X-H torsion
[ 11005 11000 10999 10996 ] final -123.26 input  -57.11 | X-H torsion

> <Gold.Protein.ActiveResidues>
 VAL166  LYS551  ARG553  GLY616  TRP617  ASP618  TYR619  PRO620  LYS621  CYS622 
 ASP623  PHE694  ASN695  SER759  ASP760  ASP761  ALA762  ILE779  LEU786  VAL792 
 PHE793  MET794  SER795  GLU796  ALA797  LYS798  CYS799  TRP800  GLU811  SER814 

> <Gold.Protein.RotatedAtoms>
  150.7037  134.4617  159.5383 H   0  0  0  0  0  0  0  0  0  0  0  0  # atno 6907 bound_to 6896
  152.2290  134.8337  160.0485 H   0  0  0  0  0  0  0  0  0  0  0  0  # atno 6908 bound_to 6896
  151.9160  133.3538  159.3917 H   0  0  0  0  0  0  0  0  0  0  0  0  # atno 6909 bound_to 6896
  145.6623  140.9248  143.0927 H   0  0  0  0  0  0  0  0  0  0  0  0  # atno 7974 bound_to 7965
  155.0901  140.0395  157.2666 H   0  0  0  0  0  0  0  0  0  0  0  0  # atno 8008 bound_to 7997
  154.6838  140.2639  155.6856 H   0  0  0  0  0  0  0  0  0  0  0  0  # atno 8009 bound_to 7997
  156.2704  140.2773  156.1392 H   0  0  0  0  0  0  0  0  0  0  0  0  # atno 8010 bound_to 7997
  139.5222  144.2891  152.0479 H   0  0  0  0  0  0  0  0  0  0  0  0  # atno 10167 bound_to 10162
  156.0988  130.4189  150.0860 H   0  0  0  0  0  0  0  0  0  0  0  0  # atno 10718 bound_to 10713
  153.4279  135.7011  153.6250 H   0  0  0  0  0  0  0  0  0  0  0  0  # atno 10763 bound_to 10752
  153.4677  135.3722  155.2374 H   0  0  0  0  0  0  0  0  0  0  0  0  # atno 10764 bound_to 10752
  154.8724  135.4035  154.3658 H   0  0  0  0  0  0  0  0  0  0  0  0  # atno 10765 bound_to 10752
  140.9932  134.0508  157.3629 H   0  0  0  0  0  0  0  0  0  0  0  0  # atno 11005 bound_to 11000
  144.7085  139.8465  143.7422 LP  0  0  0  0  0  0  0  0  0  0  0  0  # atno 17320 bound_to 7965
  146.1115  139.4120  143.0285 LP  0  0  0  0  0  0  0  0  0  0  0  0  # atno 17321 bound_to 7965
  140.2343  144.4336  150.6287 LP  0  0  0  0  0  0  0  0  0  0  0  0  # atno 17342 bound_to 10162
  140.6334  143.2191  151.6447 LP  0  0  0  0  0  0  0  0  0  0  0  0  # atno 17343 bound_to 10162
  156.8852  130.9570  151.3595 LP  0  0  0  0  0  0  0  0  0  0  0  0  # atno 17370 bound_to 10713
  157.6154  130.8614  149.9020 LP  0  0  0  0  0  0  0  0  0  0  0  0  # atno 17371 bound_to 10713
  139.9002  135.0161  156.7232 LP  0  0  0  0  0  0  0  0  0  0  0  0  # atno 17394 bound_to 11000
  140.7006  133.9309  155.8022 LP  0  0  0  0  0  0  0  0  0  0  0  0  # atno 17395 bound_to 11000

$$$$
