AV-unprocessed.smi:1680|AV-procd|sdf|6738|dock3
  -GOLD-   22720 7483D 1   1.00000     0.00000
 Structure written by MMmdl.
 39 40  0  0  0  0  0  0  0  0  2 V2000
  145.3123  130.5999  151.3969 C   0  0  0  0  0  0  0  0  0  0  0  0
  146.3300  131.0889  152.4297 C   0  0  0  0  0  0  0  0  0  0  0  0
  146.5829  130.3553  153.3851 O   0  0  0  0  0  0  0  0  0  0  0  0
  146.9158  132.2991  152.2630 N   0  0  0  0  0  0  0  0  0  0  0  0
  147.8372  132.9379  153.2076 C   0  0  0  0  0  0  0  0  0  0  0  0
  147.1515  134.1749  153.8157 C   0  0  0  0  0  0  0  0  0  0  0  0
  146.6848  135.1158  152.7612 N   0  3  0  0  0  0  0  0  0  0  0  0
  146.0316  136.3184  153.3360 C   0  0  0  0  0  0  0  0  0  0  0  0
  145.6867  137.3723  152.2654 C   0  0  0  0  0  0  0  0  0  0  0  0
  144.4041  138.0121  152.5353 N   0  0  0  0  0  0  0  0  0  0  0  0
  143.2831  137.3618  152.8800 C   0  0  0  0  0  0  0  0  0  0  0  0
  143.2241  136.1377  152.9998 O   0  0  0  0  0  0  0  0  0  0  0  0
  142.2597  138.2140  153.0659 N   0  0  0  0  0  0  0  0  0  0  0  0
  140.9164  137.9121  153.4143 C   0  0  0  0  0  0  0  0  0  0  0  0
  139.9496  138.8369  153.5219 N   0  0  0  0  0  0  0  0  0  0  0  0
  138.7308  138.2750  153.8789 N   0  0  0  0  0  0  0  0  0  0  0  0
  138.8260  136.9504  154.0258 C   0  0  0  0  0  0  0  0  0  0  0  0
  140.4140  136.2597  153.7411 S   0  0  0  0  0  0  0  0  0  0  0  0
  145.8701  134.4438  151.7106 C   0  0  0  0  0  0  0  0  0  0  0  0
  146.5826  133.1974  151.1542 C   0  0  0  0  0  0  0  0  0  0  0  0
  145.7695  130.5178  150.4103 H   0  0  0  0  0  0  0  0  0  0  0  0
  144.4621  131.2803  151.3396 H   0  0  0  0  0  0  0  0  0  0  0  0
  144.9313  129.6150  151.6697 H   0  0  0  0  0  0  0  0  0  0  0  0
  148.1764  132.2779  154.0047 H   0  0  0  0  0  0  0  0  0  0  0  0
  148.7402  133.2376  152.6740 H   0  0  0  0  0  0  0  0  0  0  0  0
  146.3007  133.8642  154.4246 H   0  0  0  0  0  0  0  0  0  0  0  0
  147.8488  134.6861  154.4806 H   0  0  0  0  0  0  0  0  0  0  0  0
  145.1398  136.0257  153.8925 H   0  0  0  0  0  0  0  0  0  0  0  0
  146.7104  136.7710  154.0602 H   0  0  0  0  0  0  0  0  0  0  0  0
  146.4725  138.1272  152.2037 H   0  0  0  0  0  0  0  0  0  0  0  0
  145.6165  136.9151  151.2793 H   0  0  0  0  0  0  0  0  0  0  0  0
  144.3697  139.0187  152.4614 H   0  0  0  0  0  0  0  0  0  0  0  0
  142.4610  139.1940  152.9328 H   0  0  0  0  0  0  0  0  0  0  0  0
  137.9551  136.3759  154.3043 H   0  0  0  0  0  0  0  0  0  0  0  0
  144.9041  134.1576  152.1297 H   0  0  0  0  0  0  0  0  0  0  0  0
  145.6687  135.1314  150.8900 H   0  0  0  0  0  0  0  0  0  0  0  0
  147.5006  133.4879  150.6411 H   0  0  0  0  0  0  0  0  0  0  0  0
  145.9573  132.7235  150.3964 H   0  0  0  0  0  0  0  0  0  0  0  0
  147.5240  135.4428  152.3039 H   0  0  0  0  0  0  0  0  0  0  0  0
  1  2  1  0  0  0  0
  1 21  1  0  0  0  0
  1 22  1  0  0  0  0
  1 23  1  0  0  0  0
  2  3  2  0  0  0  0
  2  4  1  0  0  0  0
  4 20  1  0  0  0  0
  4  5  1  0  0  0  0
  5  6  1  0  0  0  0
  5 24  1  0  0  0  0
  5 25  1  0  0  0  0
  6  7  1  0  0  0  0
  6 26  1  0  0  0  0
  6 27  1  0  0  0  0
  7  8  1  0  0  0  0
  7 19  1  0  0  0  0
  7 39  1  0  0  0  0
  8  9  1  0  0  0  0
  8 28  1  0  0  0  0
  8 29  1  0  0  0  0
  9 10  1  0  0  0  0
  9 30  1  0  0  0  0
  9 31  1  0  0  0  0
 10 11  1  0  0  0  0
 10 32  1  0  0  0  0
 11 12  2  0  0  0  0
 11 13  1  0  0  0  0
 13 14  1  0  0  0  0
 13 33  1  0  0  0  0
 14 18  1  0  0  0  0
 14 15  2  0  0  0  0
 15 16  1  0  0  0  0
 16 17  2  0  0  0  0
 17 18  1  0  0  0  0
 17 34  1  0  0  0  0
 19 20  1  0  0  0  0
 19 35  1  0  0  0  0
 19 36  1  0  0  0  0
 20 37  1  0  0  0  0
 20 38  1  0  0  0  0
M  CHG  1   7   1
M  END
> <s_m_source_file>
AV-unprocessed.smi

> <i_m_source_file_index>
1680

> <i_lp_mmshare_version>
43012

> <i_f3d_flags>
0

> <s_epik_input>
W0NIM11DKD1PKU4xW0NIMl1bQ0gyXU4oW0NIMl1bQ0gyXTEpW0NIMl1bQ0gyXVtOSF1DKD1PKVtOSF1jMm5uW2NIXXMy

> <s_epik_cmdline>
J2VwaWtfcHl0aG9uJywgJy1waCcsICc3LjAnLCAnLXRuJywgJzgnLCAnLW1hJywgJzIwMCcsICctbWV0YWxfYmluZGluZycsICctaW1hZScsICc8aW5maWxlLm1hZT4nLCAnLW9tYWUnLCAnPG91dGZpbGUubWFlPic=

> <r_lp_tautomer_probability>
1

> <r_epik_Ionization_Penalty>
0.679071

> <r_epik_Ionization_Penalty_Charging>
0.67523

> <r_epik_Ionization_Penalty_Neutral>
0.00384089

> <r_epik_State_Penalty>
0.695776

> <r_epik_Charging_Adjusted_Penalty>
1.37101

> <i_epik_Tot_Q>
1

> <i_epik_Tot_abs_Q>
1

> <r_epik_Metal_State_Penalty>
1.03363

> <b_epik_Metal_Only>
0

> <s_lp_Force_Field>
OPLS_2005

> <r_lp_Energy>
38.3378

> <b_lp_Chiralities_Consistent>
1

> <s_lp_Variant>
AV-unprocessed.smi:1680-2

> <Gold.Version>
5.8.1

> <Gold.Id.Protein>
6NUR|6NUR_protein|mol2

> <Gold.PLP.Fitness>
44.7906

> <Gold.PLP.PLP>
-33.5269

> <Gold.PLP.part.hbond>
-4.0000

> <Gold.PLP.part.metal>
0.0000

> <Gold.PLP.part.buried>
-5.3061

> <Gold.PLP.part.nonpolar>
-25.7109

> <Gold.PLP.part.repulsive>
0.5911

> <Gold.PLP.ligand.clash>
0.0000

> <Gold.PLP.ligand.torsion>
0.3736

> <Gold.PLP.Chemscore.Hbond>
3.9920

> <Gold.PLP.Chemscore.CHOScore>
0.0000

> <Gold.PLP.Chemscore.Metal>
0.0000

> <Gold.Chemscore.Hbonds>
donor molecule, donor type, donor heavy atom, donor atom, acceptor molecule, acceptor atom, score
      L1  H     7    39       P1  7948  2.00
      L1  H    10    32       P1 10175  1.00
      L1  H    13    33       P1 10175  0.99

> <Gold.PLP.Chemscore.Internal.Correction>
0.0349

> <Gold.Rescore>
     Score         DG    S(hbond)    S(metal)    S(lipo)     H(rot)  DE(clash)    DE(int)     intcor
     14.10     -17.07       2.96        0.00      54.68       1.83       0.02       2.95       ----

> <Gold.Chemscore.Fitness>
14.0982

> <Gold.Chemscore.DG>
-17.0721

> <Gold.Chemscore.ZeroCoef>
-5.4800

> <Gold.Chemscore.Hbond>
2.9557

> <Gold.Chemscore.Metal>
0.0000

> <Gold.Chemscore.Lipo>
54.6808

> <Gold.Chemscore.Internal_Hbond>
0.0000

> <Gold.Chemscore.DEClash>
0.0208

> <Gold.Chemscore.DEInternal>
2.9530

> <Gold.Chemscore.Rot>
1.8272

> <Gold.Chemscore.Internal.Correction>
   9.000000E+99

> <Gold.Chemscore.Hbonds>
donor molecule, donor type, donor heavy atom, donor atom, acceptor molecule, acceptor atom, score
      L1  H     7    39       P1  7948  1.00
      L1  H    10    32       P1 10175  0.96
      L1  H    13    33       P1 10175  0.93

> <Gold.Chemscore.Hbond.Weighted>
-9.8720

> <Gold.Chemscore.Metal.Weighted>
-0.0000

> <Gold.Chemscore.Lipo.Weighted>
-6.3977

> <Gold.Chemscore.Internal_Hbond.Weighted>
0.0000

> <Gold.Chemscore.DEClash.Weighted>
0.0208

> <Gold.Chemscore.DEInternal.Weighted>
2.9530

> <Gold.Chemscore.Rot.Weighted>
4.6776

> <Gold.Chemscore.Internal.Correction.Weighted>
   9.000000E+99

> <Gold.Protein.RotatedTorsions>
[ 6907 6896 6895 6894 ] final   53.85 input  -60.11 | X-H torsion
[ 7974 7965 7964 7962 ] final -130.89 input  175.53 | X-H torsion
[ 8008 7997 7996 7995 ] final -178.07 input   59.86 | X-H torsion
[ 10167 10162 10161 10158 ] final  113.97 input  -65.29 | X-H torsion
[ 10718 10713 10712 10709 ] final -166.49 input   66.30 | X-H torsion
[ 10763 10752 10751 10750 ] final  -19.48 input  -60.55 | X-H torsion
[ 11005 11000 10999 10996 ] final  175.08 input  -57.11 | X-H torsion

> <Gold.Protein.ActiveResidues>
 VAL166  LYS551  ARG553  GLY616  TRP617  ASP618  TYR619  PRO620  LYS621  CYS622 
 ASP623  PHE694  ASN695  SER759  ASP760  ASP761  ALA762  ILE779  LEU786  VAL792 
 PHE793  MET794  SER795  GLU796  ALA797  LYS798  CYS799  TRP800  GLU811  SER814 

> <Gold.Protein.RotatedAtoms>
  152.3379  134.7174  160.0271 H   0  0  0  0  0  0  0  0  0  0  0  0  # atno 6907 bound_to 6896
  151.7569  133.3325  159.3415 H   0  0  0  0  0  0  0  0  0  0  0  0  # atno 6908 bound_to 6896
  150.7461  134.6074  159.6112 H   0  0  0  0  0  0  0  0  0  0  0  0  # atno 6909 bound_to 6896
  144.9431  140.7261  143.4834 H   0  0  0  0  0  0  0  0  0  0  0  0  # atno 7974 bound_to 7965
  156.0145  140.1248  157.0420 H   0  0  0  0  0  0  0  0  0  0  0  0  # atno 8008 bound_to 7997
  154.4288  140.1081  156.5946 H   0  0  0  0  0  0  0  0  0  0  0  0  # atno 8009 bound_to 7997
  155.6032  140.3470  155.4602 H   0  0  0  0  0  0  0  0  0  0  0  0  # atno 8010 bound_to 7997
  139.6422  144.7124  151.2213 H   0  0  0  0  0  0  0  0  0  0  0  0  # atno 10167 bound_to 10162
  156.6686  130.9075  151.3040 H   0  0  0  0  0  0  0  0  0  0  0  0  # atno 10718 bound_to 10713
  153.6054  135.6998  153.5368 H   0  0  0  0  0  0  0  0  0  0  0  0  # atno 10763 bound_to 10752
  153.3061  135.4114  155.1295 H   0  0  0  0  0  0  0  0  0  0  0  0  # atno 10764 bound_to 10752
  154.8574  135.3661  154.5591 H   0  0  0  0  0  0  0  0  0  0  0  0  # atno 10765 bound_to 10752
  140.3583  134.7135  157.4314 H   0  0  0  0  0  0  0  0  0  0  0  0  # atno 11005 bound_to 11000
  145.2960  139.1867  143.4715 LP  0  0  0  0  0  0  0  0  0  0  0  0  # atno 17320 bound_to 7965
  146.3293  140.2944  142.8617 LP  0  0  0  0  0  0  0  0  0  0  0  0  # atno 17321 bound_to 7965
  140.7497  143.6291  150.8440 LP  0  0  0  0  0  0  0  0  0  0  0  0  # atno 17342 bound_to 10162
  139.9930  143.5826  152.2903 LP  0  0  0  0  0  0  0  0  0  0  0  0  # atno 17343 bound_to 10162
  157.7085  130.9413  150.1010 LP  0  0  0  0  0  0  0  0  0  0  0  0  # atno 17370 bound_to 10713
  156.1956  130.3657  149.8853 LP  0  0  0  0  0  0  0  0  0  0  0  0  # atno 17371 bound_to 10713
  140.0647  134.5946  155.8708 LP  0  0  0  0  0  0  0  0  0  0  0  0  # atno 17394 bound_to 11000
  141.1992  133.6605  156.5830 LP  0  0  0  0  0  0  0  0  0  0  0  0  # atno 17395 bound_to 11000

$$$$
