AV-unprocessed.smi:2165|AV-procd|sdf|8813|dock4
  -GOLD-   2272012 03D 1   1.00000     0.00000
 Structure written by MMmdl.
 36 37  0  0  0  0  0  0  0  0  1 V2000
  150.8342  141.7936  156.4634 C   0  0  0  0  0  0  0  0  0  0  0  0
  150.5593  140.5802  155.7226 N   0  0  0  0  0  0  0  0  0  0  0  0
  151.5576  139.5793  155.6415 C   0  0  0  0  0  0  0  0  0  0  0  0
  152.6586  139.6928  156.1809 O   0  0  0  0  0  0  0  0  0  0  0  0
  151.1744  138.4078  154.8624 C   0  0  0  0  0  0  0  0  0  0  0  0
  149.9587  138.3292  154.2784 C   0  0  0  0  0  0  0  0  0  0  0  0
  149.0037  139.3255  154.3684 N   0  0  0  0  0  0  0  0  0  0  0  0
  147.7131  139.1619  153.6872 C   0  0  0  0  0  0  0  0  0  0  0  0
  146.8897  137.9894  154.2369 C   0  0  0  0  0  0  0  0  0  0  0  0
  146.3590  138.0583  155.3466 O   0  0  0  0  0  0  0  0  0  0  0  0
  146.7798  136.9200  153.4348 N   0  0  0  0  0  0  0  0  0  0  0  0
  146.0654  135.6932  153.7675 C   0  0  0  0  0  0  0  0  0  0  0  0
  144.9957  135.3604  152.7140 C   0  0  1  0  0  0  0  0  0  0  0  0
  145.5513  135.2165  151.2985 C   0  0  0  0  0  0  0  0  0  0  0  0
  144.5088  134.3340  150.6520 C   0  0  0  0  0  0  0  0  0  0  0  0
  144.1642  133.3767  151.7891 C   0  0  0  0  0  0  0  0  0  0  0  0
  144.3863  134.1024  152.9961 O   0  0  0  0  0  0  0  0  0  0  0  0
  149.2926  140.4944  155.1044 C   0  0  0  0  0  0  0  0  0  0  0  0
  148.4631  141.4034  155.1948 O   0  0  0  0  0  0  0  0  0  0  0  0
  151.7786  141.7239  157.0023 H   0  0  0  0  0  0  0  0  0  0  0  0
  150.0227  141.9328  157.1799 H   0  0  0  0  0  0  0  0  0  0  0  0
  150.8695  142.6083  155.7383 H   0  0  0  0  0  0  0  0  0  0  0  0
  151.8750  137.5935  154.7492 H   0  0  0  0  0  0  0  0  0  0  0  0
  149.7251  137.4421  153.7078 H   0  0  0  0  0  0  0  0  0  0  0  0
  147.1194  140.0711  153.7894 H   0  0  0  0  0  0  0  0  0  0  0  0
  147.8723  139.0322  152.6149 H   0  0  0  0  0  0  0  0  0  0  0  0
  147.2465  136.9470  152.5399 H   0  0  0  0  0  0  0  0  0  0  0  0
  146.7723  134.8675  153.8638 H   0  0  0  0  0  0  0  0  0  0  0  0
  145.6009  135.8190  154.7459 H   0  0  0  0  0  0  0  0  0  0  0  0
  144.2120  136.1199  152.7078 H   0  0  0  0  0  0  0  0  0  0  0  0
  145.6767  136.1735  150.7916 H   0  0  0  0  0  0  0  0  0  0  0  0
  146.5153  134.7056  151.3112 H   0  0  0  0  0  0  0  0  0  0  0  0
  143.6340  134.9264  150.3799 H   0  0  0  0  0  0  0  0  0  0  0  0
  144.8696  133.8242  149.7583 H   0  0  0  0  0  0  0  0  0  0  0  0
  143.1393  133.0109  151.7269 H   0  0  0  0  0  0  0  0  0  0  0  0
  144.8325  132.5150  151.7776 H   0  0  0  0  0  0  0  0  0  0  0  0
  1  2  1  0  0  0  0
  1 20  1  0  0  0  0
  1 21  1  0  0  0  0
  1 22  1  0  0  0  0
  2 18  1  0  0  0  0
  2  3  1  0  0  0  0
  3  4  2  0  0  0  0
  3  5  1  0  0  0  0
  5  6  2  0  0  0  0
  5 23  1  0  0  0  0
  6  7  1  0  0  0  0
  6 24  1  0  0  0  0
  7  8  1  0  0  0  0
  7 18  1  0  0  0  0
  8  9  1  0  0  0  0
  8 25  1  0  0  0  0
  8 26  1  0  0  0  0
  9 10  2  0  0  0  0
  9 11  1  0  0  0  0
 11 12  1  0  0  0  0
 11 27  1  0  0  0  0
 12 13  1  0  0  0  0
 12 28  1  0  0  0  0
 12 29  1  0  0  0  0
 13 17  1  0  0  0  0
 13 14  1  0  0  0  0
 13 30  1  0  0  0  0
 14 15  1  0  0  0  0
 14 31  1  0  0  0  0
 14 32  1  0  0  0  0
 15 16  1  0  0  0  0
 15 33  1  0  0  0  0
 15 34  1  0  0  0  0
 16 17  1  0  0  0  0
 16 35  1  0  0  0  0
 16 36  1  0  0  0  0
 18 19  2  0  0  0  0
M  END
> <s_m_source_file>
AV-unprocessed.smi

> <i_m_source_file_index>
2165

> <i_lp_mmshare_version>
43012

> <i_f3d_flags>
0

> <s_epik_input>
W0NIM11uMWMoPU8pW2NIXVtjSF1uKGMxPU8pW0NIMl1DKD1PKVtOSF1bQ0gyXVtDQEBIXTJbQ0gyXVtDSDJdW0NIMl1PMg==

> <s_epik_cmdline>
J2VwaWtfcHl0aG9uJywgJy1waCcsICc3LjAnLCAnLXRuJywgJzgnLCAnLW1hJywgJzIwMCcsICctbWV0YWxfYmluZGluZycsICctaW1hZScsICc8aW5maWxlLm1hZT4nLCAnLW9tYWUnLCAnPG91dGZpbGUubWFlPic=

> <r_lp_tautomer_probability>
1

> <r_epik_Ionization_Penalty>
3.89869e-08

> <r_epik_Ionization_Penalty_Charging>
1.21279e-08

> <r_epik_Ionization_Penalty_Neutral>
2.6859e-08

> <r_epik_State_Penalty>
-0

> <r_epik_Charging_Adjusted_Penalty>
1.21279e-08

> <i_epik_Tot_Q>
0

> <i_epik_Tot_abs_Q>
0

> <r_epik_Metal_State_Penalty>
-0

> <b_epik_Metal_Only>
0

> <s_lp_Force_Field>
OPLS_2005

> <r_lp_Energy>
24.234

> <b_lp_Chiralities_Consistent>
1

> <s_lp_Variant>
AV-unprocessed.smi:2165-2

> <Gold.Version>
5.8.1

> <Gold.Id.Protein>
6NUR|6NUR_protein|mol2

> <Gold.PLP.Fitness>
40.1083

> <Gold.PLP.PLP>
-32.7744

> <Gold.PLP.part.hbond>
-2.0000

> <Gold.PLP.part.metal>
0.0000

> <Gold.PLP.part.buried>
-1.8401

> <Gold.PLP.part.nonpolar>
-29.0101

> <Gold.PLP.part.repulsive>
0.2848

> <Gold.PLP.ligand.clash>
0.0000

> <Gold.PLP.ligand.torsion>
0.1533

> <Gold.PLP.Chemscore.Hbond>
1.5440

> <Gold.PLP.Chemscore.CHOScore>
1.0000

> <Gold.PLP.Chemscore.Metal>
0.0000

> <Gold.Chemscore.Hbonds>
donor molecule, donor type, donor heavy atom, donor atom, acceptor molecule, acceptor atom, score
      L1  H    11    27       P1  7948  0.70
      P1  H  7997  8010       L1     4  1.00
      L1  C     6    24       P1  7948  1.00

> <Gold.PLP.Chemscore.Internal.Correction>
0.0085

> <Gold.Rescore>
     Score         DG    S(hbond)    S(metal)    S(lipo)     H(rot)  DE(clash)    DE(int)     intcor
     12.24     -12.84       1.92        0.00      49.05       1.87       0.02       0.58       ----

> <Gold.Chemscore.Fitness>
12.2429

> <Gold.Chemscore.DG>
-12.8448

> <Gold.Chemscore.ZeroCoef>
-5.4800

> <Gold.Chemscore.Hbond>
1.9185

> <Gold.Chemscore.Metal>
0.0000

> <Gold.Chemscore.Lipo>
49.0535

> <Gold.Chemscore.Internal_Hbond>
0.0000

> <Gold.Chemscore.DEClash>
0.0239

> <Gold.Chemscore.DEInternal>
0.5781

> <Gold.Chemscore.Rot>
1.8681

> <Gold.Chemscore.Internal.Correction>
   9.000000E+99

> <Gold.Chemscore.Hbonds>
donor molecule, donor type, donor heavy atom, donor atom, acceptor molecule, acceptor atom, score
      L1  H    11    27       P1  7948  0.69
      P1  H  7997  8010       L1     4  1.00

> <Gold.Chemscore.Hbond.Weighted>
-6.4078

> <Gold.Chemscore.Metal.Weighted>
-0.0000

> <Gold.Chemscore.Lipo.Weighted>
-5.7393

> <Gold.Chemscore.Internal_Hbond.Weighted>
0.0000

> <Gold.Chemscore.DEClash.Weighted>
0.0239

> <Gold.Chemscore.DEInternal.Weighted>
0.5781

> <Gold.Chemscore.Rot.Weighted>
4.7822

> <Gold.Chemscore.Internal.Correction.Weighted>
   9.000000E+99

> <Gold.Protein.RotatedTorsions>
[ 6907 6896 6895 6894 ] final  -83.28 input  -60.11 | X-H torsion
[ 7974 7965 7964 7962 ] final  124.15 input  175.53 | X-H torsion
[ 8008 7997 7996 7995 ] final   70.28 input   59.86 | X-H torsion
[ 10167 10162 10161 10158 ] final  -43.85 input  -65.29 | X-H torsion
[ 10718 10713 10712 10709 ] final -100.01 input   66.30 | X-H torsion
[ 10763 10752 10751 10750 ] final -152.96 input  -60.55 | X-H torsion
[ 11005 11000 10999 10996 ] final   54.83 input  -57.11 | X-H torsion

> <Gold.Protein.ActiveResidues>
 VAL166  LYS551  ARG553  GLY616  TRP617  ASP618  TYR619  PRO620  LYS621  CYS622 
 ASP623  PHE694  ASN695  SER759  ASP760  ASP761  ALA762  ILE779  LEU786  VAL792 
 PHE793  MET794  SER795  GLU796  ALA797  LYS798  CYS799  TRP800  GLU811  SER814 

> <Gold.Protein.RotatedAtoms>
  150.6887  134.3536  159.4919 H   0  0  0  0  0  0  0  0  0  0  0  0  # atno 6907 bound_to 6896
  152.1374  134.9086  160.0565 H   0  0  0  0  0  0  0  0  0  0  0  0  # atno 6908 bound_to 6896
  152.0232  133.3872  159.4304 H   0  0  0  0  0  0  0  0  0  0  0  0  # atno 6909 bound_to 6896
  145.0877  139.3609  143.4876 H   0  0  0  0  0  0  0  0  0  0  0  0  # atno 7974 bound_to 7965
  155.7365  140.3491  155.5084 H   0  0  0  0  0  0  0  0  0  0  0  0  # atno 8008 bound_to 7997
  155.9134  140.1054  157.1283 H   0  0  0  0  0  0  0  0  0  0  0  0  # atno 8009 bound_to 7997
  154.4059  140.1263  156.4573 H   0  0  0  0  0  0  0  0  0  0  0  0  # atno 8010 bound_to 7997
  140.6919  143.2961  151.3411 H   0  0  0  0  0  0  0  0  0  0  0  0  # atno 10167 bound_to 10162
  156.0150  130.5308  150.6754 H   0  0  0  0  0  0  0  0  0  0  0  0  # atno 10718 bound_to 10713
  154.7960  135.3224  154.7666 H   0  0  0  0  0  0  0  0  0  0  0  0  # atno 10763 bound_to 10752
  153.8344  135.6876  153.4815 H   0  0  0  0  0  0  0  0  0  0  0  0  # atno 10764 bound_to 10752
  153.1651  135.4645  154.9768 H   0  0  0  0  0  0  0  0  0  0  0  0  # atno 10765 bound_to 10752
  140.0655  134.5542  155.9104 H   0  0  0  0  0  0  0  0  0  0  0  0  # atno 11005 bound_to 11000
  146.3531  140.0697  142.8624 LP  0  0  0  0  0  0  0  0  0  0  0  0  # atno 17320 bound_to 7965
  145.1102  140.9400  143.4661 LP  0  0  0  0  0  0  0  0  0  0  0  0  # atno 17321 bound_to 7965
  139.6330  144.0684  152.2492 LP  0  0  0  0  0  0  0  0  0  0  0  0  # atno 17342 bound_to 10162
  140.0165  144.6185  150.7603 LP  0  0  0  0  0  0  0  0  0  0  0  0  # atno 17343 bound_to 10162
  157.4467  131.0868  151.0888 LP  0  0  0  0  0  0  0  0  0  0  0  0  # atno 17370 bound_to 10713
  157.1415  130.6145  149.5556 LP  0  0  0  0  0  0  0  0  0  0  0  0  # atno 17371 bound_to 10713
  141.1991  133.6605  156.5826 LP  0  0  0  0  0  0  0  0  0  0  0  0  # atno 17394 bound_to 11000
  140.3705  134.7610  157.4595 LP  0  0  0  0  0  0  0  0  0  0  0  0  # atno 17395 bound_to 11000

$$$$
