AV-unprocessed.smi:2819|AV-procd|sdf|10853|dock5
  -GOLD-   2272015293D 1   1.00000     0.00000
 Structure written by MMmdl.
 50 51  0  0  0  0  0  0  0  0  2 V2000
  153.6422  141.9783  161.1343 C   0  0  0  0  0  0  0  0  0  0  0  0
  152.6707  142.9433  160.6301 N   0  0  0  0  0  0  0  0  0  0  0  0
  152.2586  144.0701  161.4568 C   0  0  0  0  0  0  0  0  0  0  0  0
  152.1286  142.7795  159.3365 C   0  0  0  0  0  0  0  0  0  0  0  0
  151.9530  143.8694  158.4498 C   0  0  0  0  0  0  0  0  0  0  0  0
  151.3997  143.5799  157.1872 C   0  0  0  0  0  0  0  0  0  0  0  0
  151.0503  142.3258  156.8314 N   0  0  0  0  0  0  0  0  0  0  0  0
  151.2527  141.3590  157.7292 C   0  0  0  0  0  0  0  0  0  0  0  0
  150.8698  140.1037  157.3090 N   0  0  0  0  0  0  0  0  0  0  0  0
  150.5018  139.6596  156.0923 C   0  0  0  0  0  0  0  0  0  0  0  0
  150.4083  140.3500  155.0763 O   0  0  0  0  0  0  0  0  0  0  0  0
  150.2467  138.3426  156.1120 N   0  0  0  0  0  0  0  0  0  0  0  0
  149.8228  137.5442  154.9620 C   0  0  0  0  0  0  0  0  0  0  0  0
  148.4843  136.7782  155.1926 C   0  0  0  0  0  0  0  0  0  0  0  0
  148.3052  136.4273  156.6912 C   0  0  0  0  0  0  0  0  0  0  0  0
  147.2905  137.6939  154.8232 C   0  0  0  0  0  0  0  0  0  0  0  0
  148.4284  135.5140  154.3730 N   0  3  0  0  0  0  0  0  0  0  0  0
  149.4452  134.4763  154.7062 C   0  0  0  0  0  0  0  0  0  0  0  0
  149.4035  133.3291  153.6827 C   0  0  0  0  0  0  0  0  0  0  0  0
  148.1009  132.7642  153.6481 O   0  0  0  0  0  0  0  0  0  0  0  0
  147.1269  133.7161  153.2447 C   0  0  0  0  0  0  0  0  0  0  0  0
  147.0866  134.8747  154.2550 C   0  0  0  0  0  0  0  0  0  0  0  0
  151.7701  141.5306  158.9530 N   0  0  0  0  0  0  0  0  0  0  0  0
  153.2111  140.9767  161.1566 H   0  0  0  0  0  0  0  0  0  0  0  0
  153.9619  142.2262  162.1465 H   0  0  0  0  0  0  0  0  0  0  0  0
  154.5283  141.9591  160.4989 H   0  0  0  0  0  0  0  0  0  0  0  0
  151.1849  144.0353  161.6437 H   0  0  0  0  0  0  0  0  0  0  0  0
  152.4981  145.0134  160.9653 H   0  0  0  0  0  0  0  0  0  0  0  0
  152.7648  144.0600  162.4220 H   0  0  0  0  0  0  0  0  0  0  0  0
  152.2214  144.8833  158.7050 H   0  0  0  0  0  0  0  0  0  0  0  0
  151.2354  144.3598  156.4588 H   0  0  0  0  0  0  0  0  0  0  0  0
  150.8749  139.4058  158.0378 H   0  0  0  0  0  0  0  0  0  0  0  0
  150.3470  137.8543  156.9902 H   0  0  0  0  0  0  0  0  0  0  0  0
  149.7220  138.2413  154.1308 H   0  0  0  0  0  0  0  0  0  0  0  0
  150.6231  136.8602  154.6786 H   0  0  0  0  0  0  0  0  0  0  0  0
  148.1199  137.3149  157.2967 H   0  0  0  0  0  0  0  0  0  0  0  0
  149.1901  135.9523  157.1142 H   0  0  0  0  0  0  0  0  0  0  0  0
  147.4584  135.7575  156.8448 H   0  0  0  0  0  0  0  0  0  0  0  0
  147.1857  138.5224  155.5249 H   0  0  0  0  0  0  0  0  0  0  0  0
  146.3485  137.1443  154.8366 H   0  0  0  0  0  0  0  0  0  0  0  0
  147.4020  138.1466  153.8381 H   0  0  0  0  0  0  0  0  0  0  0  0
  150.4531  134.8865  154.7038 H   0  0  0  0  0  0  0  0  0  0  0  0
  149.2620  134.0745  155.7029 H   0  0  0  0  0  0  0  0  0  0  0  0
  149.6890  133.6810  152.6899 H   0  0  0  0  0  0  0  0  0  0  0  0
  150.1154  132.5517  153.9612 H   0  0  0  0  0  0  0  0  0  0  0  0
  147.3482  134.0810  152.2403 H   0  0  0  0  0  0  0  0  0  0  0  0
  146.1544  133.2260  153.1970 H   0  0  0  0  0  0  0  0  0  0  0  0
  146.7608  134.4949  155.2235 H   0  0  0  0  0  0  0  0  0  0  0  0
  146.3310  135.5809  153.9165 H   0  0  0  0  0  0  0  0  0  0  0  0
  148.6572  135.8132  153.4358 H   0  0  0  0  0  0  0  0  0  0  0  0
  1  2  1  0  0  0  0
  1 24  1  0  0  0  0
  1 25  1  0  0  0  0
  1 26  1  0  0  0  0
  2  3  1  0  0  0  0
  2  4  1  0  0  0  0
  3 27  1  0  0  0  0
  3 28  1  0  0  0  0
  3 29  1  0  0  0  0
  4 23  1  0  0  0  0
  4  5  2  0  0  0  0
  5  6  1  0  0  0  0
  5 30  1  0  0  0  0
  6  7  2  0  0  0  0
  6 31  1  0  0  0  0
  7  8  1  0  0  0  0
  8  9  1  0  0  0  0
  8 23  2  0  0  0  0
  9 10  1  0  0  0  0
  9 32  1  0  0  0  0
 10 11  2  0  0  0  0
 10 12  1  0  0  0  0
 12 13  1  0  0  0  0
 12 33  1  0  0  0  0
 13 14  1  0  0  0  0
 13 34  1  0  0  0  0
 13 35  1  0  0  0  0
 14 15  1  0  0  0  0
 14 16  1  0  0  0  0
 14 17  1  0  0  0  0
 15 36  1  0  0  0  0
 15 37  1  0  0  0  0
 15 38  1  0  0  0  0
 16 39  1  0  0  0  0
 16 40  1  0  0  0  0
 16 41  1  0  0  0  0
 17 22  1  0  0  0  0
 17 18  1  0  0  0  0
 17 50  1  0  0  0  0
 18 19  1  0  0  0  0
 18 42  1  0  0  0  0
 18 43  1  0  0  0  0
 19 20  1  0  0  0  0
 19 44  1  0  0  0  0
 19 45  1  0  0  0  0
 20 21  1  0  0  0  0
 21 22  1  0  0  0  0
 21 46  1  0  0  0  0
 21 47  1  0  0  0  0
 22 48  1  0  0  0  0
 22 49  1  0  0  0  0
M  CHG  1  17   1
M  END
> <s_m_source_file>
AV-unprocessed.smi

> <i_m_source_file_index>
2819

> <i_lp_mmshare_version>
43012

> <i_f3d_flags>
0

> <s_epik_input>
W0NIM11OKFtDSDNdKWMxW2NIXVtjSF1uYyhuMSlbTkhdQyg9TylbTkhdW0NIMl1DKFtDSDNdKShbQ0gzXSlOMltDSDJdW0NIMl1PW0NIMl1bQ0gyXTI=

> <s_epik_cmdline>
J2VwaWtfcHl0aG9uJywgJy1waCcsICc3LjAnLCAnLXRuJywgJzgnLCAnLW1hJywgJzIwMCcsICctbWV0YWxfYmluZGluZycsICctaW1hZScsICc8aW5maWxlLm1hZT4nLCAnLW9tYWUnLCAnPG91dGZpbGUubWFlPic=

> <r_epik_Ionization_Penalty>
1.64867

> <r_epik_Ionization_Penalty_Charging>
0.602531

> <r_epik_Ionization_Penalty_Neutral>
1.04614

> <r_epik_State_Penalty>
1.74763

> <r_epik_Charging_Adjusted_Penalty>
2.35016

> <i_epik_Tot_Q>
1

> <i_epik_Tot_abs_Q>
1

> <r_epik_Metal_State_Penalty>
1.04264

> <b_epik_Metal_Only>
0

> <s_lp_Force_Field>
OPLS_2005

> <r_lp_Energy>
22.1801

> <b_lp_Chiralities_Consistent>
1

> <s_lp_Variant>
AV-unprocessed.smi:2819-4

> <Gold.Version>
5.8.1

> <Gold.Id.Protein>
6NUR|6NUR_protein|mol2

> <Gold.PLP.Fitness>
45.9001

> <Gold.PLP.PLP>
-37.2640

> <Gold.PLP.part.hbond>
-2.0000

> <Gold.PLP.part.metal>
0.0000

> <Gold.PLP.part.buried>
-4.9838

> <Gold.PLP.part.nonpolar>
-30.7443

> <Gold.PLP.part.repulsive>
0.3073

> <Gold.PLP.ligand.clash>
0.0000

> <Gold.PLP.ligand.torsion>
1.3849

> <Gold.PLP.Chemscore.Hbond>
2.9913

> <Gold.PLP.Chemscore.CHOScore>
0.7614

> <Gold.PLP.Chemscore.Metal>
0.0000

> <Gold.Chemscore.Hbonds>
donor molecule, donor type, donor heavy atom, donor atom, acceptor molecule, acceptor atom, score
      L1  H    17    50       P1  7948  2.00
      P1  H  7989  7998       L1    11  0.93
      L1  C     6    31       P1  8028  0.77

> <Gold.PLP.Chemscore.Internal.Correction>
0.1479

> <Gold.Rescore>
     Score         DG    S(hbond)    S(metal)    S(lipo)     H(rot)  DE(clash)    DE(int)     intcor
     13.98     -16.80       1.89        0.00      76.70       1.55       0.12       2.70       ----

> <Gold.Chemscore.Fitness>
13.9796

> <Gold.Chemscore.DG>
-16.7997

> <Gold.Chemscore.ZeroCoef>
-5.4800

> <Gold.Chemscore.Hbond>
1.8909

> <Gold.Chemscore.Metal>
0.0000

> <Gold.Chemscore.Lipo>
76.6969

> <Gold.Chemscore.Internal_Hbond>
0.0000

> <Gold.Chemscore.DEClash>
0.1186

> <Gold.Chemscore.DEInternal>
2.7015

> <Gold.Chemscore.Rot>
1.5506

> <Gold.Chemscore.Internal.Correction>
   9.000000E+99

> <Gold.Chemscore.Hbonds>
donor molecule, donor type, donor heavy atom, donor atom, acceptor molecule, acceptor atom, score
      L1  H    17    50       P1  7948  0.99
      P1  H  7989  7998       L1    11  0.86

> <Gold.Chemscore.Hbond.Weighted>
-6.3157

> <Gold.Chemscore.Metal.Weighted>
-0.0000

> <Gold.Chemscore.Lipo.Weighted>
-8.9735

> <Gold.Chemscore.Internal_Hbond.Weighted>
0.0000

> <Gold.Chemscore.DEClash.Weighted>
0.1186

> <Gold.Chemscore.DEInternal.Weighted>
2.7015

> <Gold.Chemscore.Rot.Weighted>
3.9695

> <Gold.Chemscore.Internal.Correction.Weighted>
   9.000000E+99

> <Gold.Protein.RotatedTorsions>
[ 6907 6896 6895 6894 ] final  -29.64 input  -60.11 | X-H torsion
[ 7974 7965 7964 7962 ] final  166.85 input  175.53 | X-H torsion
[ 8008 7997 7996 7995 ] final   85.39 input   59.86 | X-H torsion
[ 10167 10162 10161 10158 ] final  -30.07 input  -65.29 | X-H torsion
[ 10718 10713 10712 10709 ] final -179.57 input   66.30 | X-H torsion
[ 10763 10752 10751 10750 ] final   67.75 input  -60.55 | X-H torsion
[ 11005 11000 10999 10996 ] final  -77.56 input  -57.11 | X-H torsion

> <Gold.Protein.ActiveResidues>
 VAL166  LYS551  ARG553  GLY616  TRP617  ASP618  TYR619  PRO620  LYS621  CYS622 
 ASP623  PHE694  ASN695  SER759  ASP760  ASP761  ALA762  ILE779  LEU786  VAL792 
 PHE793  MET794  SER795  GLU796  ALA797  LYS798  CYS799  TRP800  GLU811  SER814 

> <Gold.Protein.RotatedAtoms>
  151.1164  135.0055  159.8517 H   0  0  0  0  0  0  0  0  0  0  0  0  # atno 6907 bound_to 6896
  152.5446  134.1774  159.8632 H   0  0  0  0  0  0  0  0  0  0  0  0  # atno 6908 bound_to 6896
  151.1829  133.4669  159.2627 H   0  0  0  0  0  0  0  0  0  0  0  0  # atno 6909 bound_to 6896
  144.7446  139.8676  143.6386 H   0  0  0  0  0  0  0  0  0  0  0  0  # atno 7974 bound_to 7965
  155.9493  140.3402  155.6394 H   0  0  0  0  0  0  0  0  0  0  0  0  # atno 8008 bound_to 7997
  155.6940  140.0752  157.2455 H   0  0  0  0  0  0  0  0  0  0  0  0  # atno 8009 bound_to 7997
  154.4118  140.1652  156.2105 H   0  0  0  0  0  0  0  0  0  0  0  0  # atno 8010 bound_to 7997
  140.7253  143.3878  151.1484 H   0  0  0  0  0  0  0  0  0  0  0  0  # atno 10167 bound_to 10162
  156.8611  130.9752  151.3083 H   0  0  0  0  0  0  0  0  0  0  0  0  # atno 10718 bound_to 10713
  153.0201  135.5272  154.7028 H   0  0  0  0  0  0  0  0  0  0  0  0  # atno 10763 bound_to 10752
  154.6132  135.2880  155.0411 H   0  0  0  0  0  0  0  0  0  0  0  0  # atno 10764 bound_to 10752
  154.1425  135.6576  153.4998 H   0  0  0  0  0  0  0  0  0  0  0  0  # atno 10765 bound_to 10752
  141.1661  133.7027  156.7840 H   0  0  0  0  0  0  0  0  0  0  0  0  # atno 11005 bound_to 11000
  146.1304  139.4338  143.0172 LP  0  0  0  0  0  0  0  0  0  0  0  0  # atno 17320 bound_to 7965
  145.7172  141.0087  143.1422 LP  0  0  0  0  0  0  0  0  0  0  0  0  # atno 17321 bound_to 7965
  139.7478  143.8825  152.3068 LP  0  0  0  0  0  0  0  0  0  0  0  0  # atno 17342 bound_to 10162
  139.8668  144.7089  150.9034 LP  0  0  0  0  0  0  0  0  0  0  0  0  # atno 17343 bound_to 10162
  157.6250  130.8684  149.9173 LP  0  0  0  0  0  0  0  0  0  0  0  0  # atno 17370 bound_to 10713
  156.0776  130.3677  150.0645 LP  0  0  0  0  0  0  0  0  0  0  0  0  # atno 17371 bound_to 10713
  140.2374  134.8640  157.3539 LP  0  0  0  0  0  0  0  0  0  0  0  0  # atno 17394 bound_to 11000
  140.1830  134.4466  155.7760 LP  0  0  0  0  0  0  0  0  0  0  0  0  # atno 17395 bound_to 11000

$$$$
