AV-unprocessed.smi:1486|AV-procd|sdf|6005|dock4
  -GOLD-   22720 6103D 1   1.00000     0.00000
 Structure written by MMmdl.
 39 40  0  0  0  0  0  0  0  0  1 V2000
  150.3110  131.2884  153.4244 C   0  0  0  0  0  0  0  0  0  0  0  0
  150.9415  132.2004  154.3054 O   0  0  0  0  0  0  0  0  0  0  0  0
  150.9980  133.5174  153.7805 C   0  0  0  0  0  0  0  0  0  0  0  0
  150.8358  134.5368  154.9214 C   0  0  2  0  0  0  0  0  0  0  0  0
  149.4800  134.3862  155.6243 C   0  0  0  0  0  0  0  0  0  0  0  0
  150.9511  135.8920  154.3905 N   0  0  0  0  0  0  0  0  0  0  0  0
  151.8109  136.8316  154.8162 C   0  0  0  0  0  0  0  0  0  0  0  0
  152.5552  136.6880  155.7860 O   0  0  0  0  0  0  0  0  0  0  0  0
  151.8526  138.1280  154.0063 C   0  0  0  0  0  0  0  0  0  0  0  0
  151.2421  139.2443  154.8040 C   0  0  0  0  0  0  0  0  0  0  0  0
  150.0780  139.9170  154.5224 C   0  0  0  0  0  0  0  0  0  0  0  0
  149.7109  141.1203  155.7274 S   0  0  0  0  0  0  0  0  0  0  0  0
  151.1855  140.6628  156.5854 C   0  0  0  0  0  0  0  0  0  0  0  0
  151.6682  141.2296  157.8027 N   0  0  0  0  0  0  0  0  0  0  0  0
  151.0818  142.4395  158.3718 C   0  0  0  0  0  0  0  0  0  0  0  0
  151.7133  142.6025  159.7586 C   0  0  0  0  0  0  0  0  0  0  0  0
  152.9190  141.6650  159.7667 C   0  0  0  0  0  0  0  0  0  0  0  0
  152.6962  140.7856  158.5473 C   0  0  0  0  0  0  0  0  0  0  0  0
  153.4067  139.8066  158.3236 O   0  0  0  0  0  0  0  0  0  0  0  0
  151.8653  139.6852  155.9766 N   0  0  0  0  0  0  0  0  0  0  0  0
  150.2852  130.2984  153.8798 H   0  0  0  0  0  0  0  0  0  0  0  0
  150.8562  131.2106  152.4830 H   0  0  0  0  0  0  0  0  0  0  0  0
  149.2845  131.5895  153.2125 H   0  0  0  0  0  0  0  0  0  0  0  0
  151.9448  133.6797  153.2618 H   0  0  0  0  0  0  0  0  0  0  0  0
  150.1993  133.6456  153.0482 H   0  0  0  0  0  0  0  0  0  0  0  0
  151.6137  134.3567  155.6655 H   0  0  0  0  0  0  0  0  0  0  0  0
  149.3682  133.3887  156.0496 H   0  0  0  0  0  0  0  0  0  0  0  0
  148.6527  134.5473  154.9322 H   0  0  0  0  0  0  0  0  0  0  0  0
  149.3779  135.1037  156.4391 H   0  0  0  0  0  0  0  0  0  0  0  0
  150.3814  136.1111  153.5861 H   0  0  0  0  0  0  0  0  0  0  0  0
  152.8860  138.3534  153.7396 H   0  0  0  0  0  0  0  0  0  0  0  0
  151.3139  137.9881  153.0682 H   0  0  0  0  0  0  0  0  0  0  0  0
  149.4106  139.7689  153.6863 H   0  0  0  0  0  0  0  0  0  0  0  0
  151.3254  143.2902  157.7336 H   0  0  0  0  0  0  0  0  0  0  0  0
  149.9956  142.3656  158.4396 H   0  0  0  0  0  0  0  0  0  0  0  0
  151.9963  143.6371  159.9559 H   0  0  0  0  0  0  0  0  0  0  0  0
  151.0046  142.3019  160.5317 H   0  0  0  0  0  0  0  0  0  0  0  0
  153.8522  142.2166  159.6492 H   0  0  0  0  0  0  0  0  0  0  0  0
  152.9743  141.0730  160.6810 H   0  0  0  0  0  0  0  0  0  0  0  0
  1  2  1  0  0  0  0
  1 21  1  0  0  0  0
  1 22  1  0  0  0  0
  1 23  1  0  0  0  0
  2  3  1  0  0  0  0
  3  4  1  0  0  0  0
  3 24  1  0  0  0  0
  3 25  1  0  0  0  0
  4  5  1  0  0  0  0
  4  6  1  0  0  0  0
  4 26  1  0  0  0  0
  5 27  1  0  0  0  0
  5 28  1  0  0  0  0
  5 29  1  0  0  0  0
  6  7  1  0  0  0  0
  6 30  1  0  0  0  0
  7  8  2  0  0  0  0
  7  9  1  0  0  0  0
  9 10  1  0  0  0  0
  9 31  1  0  0  0  0
  9 32  1  0  0  0  0
 10 20  1  0  0  0  0
 10 11  2  0  0  0  0
 11 12  1  0  0  0  0
 11 33  1  0  0  0  0
 12 13  1  0  0  0  0
 13 14  1  0  0  0  0
 13 20  2  0  0  0  0
 14 18  1  0  0  0  0
 14 15  1  0  0  0  0
 15 16  1  0  0  0  0
 15 34  1  0  0  0  0
 15 35  1  0  0  0  0
 16 17  1  0  0  0  0
 16 36  1  0  0  0  0
 16 37  1  0  0  0  0
 17 18  1  0  0  0  0
 17 38  1  0  0  0  0
 17 39  1  0  0  0  0
 18 19  2  0  0  0  0
M  END
> <s_m_source_file>
AV-unprocessed.smi

> <i_m_source_file_index>
1486

> <i_lp_mmshare_version>
43012

> <i_f3d_flags>
0

> <s_epik_input>
W0NIM11PW0NIMl1bQ0BIXShbQ0gzXSlbTkhdQyg9TylbQ0gyXWMxW2NIXXNjKG4xKU4yW0NIMl1bQ0gyXVtDSDJdQzI9Tw==

> <s_epik_cmdline>
J2VwaWtfcHl0aG9uJywgJy1waCcsICc3LjAnLCAnLXRuJywgJzgnLCAnLW1hJywgJzIwMCcsICctbWV0YWxfYmluZGluZycsICctaW1hZScsICc8aW5maWxlLm1hZT4nLCAnLW9tYWUnLCAnPG91dGZpbGUubWFlPic=

> <r_lp_tautomer_probability>
1

> <r_epik_Ionization_Penalty>
3.00988e-05

> <r_epik_Ionization_Penalty_Charging>
0

> <r_epik_Ionization_Penalty_Neutral>
3.00988e-05

> <r_epik_State_Penalty>
-0

> <r_epik_Charging_Adjusted_Penalty>
0

> <i_epik_Tot_Q>
0

> <i_epik_Tot_abs_Q>
0

> <r_epik_Metal_State_Penalty>
-0

> <b_epik_Metal_Only>
0

> <s_lp_Force_Field>
OPLS_2005

> <r_lp_Energy>
17.4933

> <b_lp_Chiralities_Consistent>
1

> <s_lp_Variant>
AV-unprocessed.smi:1486-1

> <Gold.Version>
5.8.1

> <Gold.Id.Protein>
6NUR|6NUR_protein|mol2

> <Gold.PLP.Fitness>
48.5105

> <Gold.PLP.PLP>
-37.4187

> <Gold.PLP.part.hbond>
-3.1529

> <Gold.PLP.part.metal>
0.0000

> <Gold.PLP.part.buried>
-3.5815

> <Gold.PLP.part.nonpolar>
-31.2406

> <Gold.PLP.part.repulsive>
0.1051

> <Gold.PLP.ligand.clash>
0.0000

> <Gold.PLP.ligand.torsion>
0.4680

> <Gold.PLP.Chemscore.Hbond>
3.0000

> <Gold.PLP.Chemscore.CHOScore>
1.0000

> <Gold.PLP.Chemscore.Metal>
0.0000

> <Gold.Chemscore.Hbonds>
donor molecule, donor type, donor heavy atom, donor atom, acceptor molecule, acceptor atom, score
      L1  H     6    30       P1  7948  0.15
      P1  H  7997  8010       L1    19  0.99
      P1  H 10752 10765       L1     8  0.44
      L1  C    11    33       P1  7957  0.96

> <Gold.PLP.Chemscore.Internal.Correction>
0.0278

> <Gold.Rescore>
     Score         DG    S(hbond)    S(metal)    S(lipo)     H(rot)  DE(clash)    DE(int)     intcor
     15.76     -17.84       2.47        0.00      77.48       1.94       0.20       1.88       ----

> <Gold.Chemscore.Fitness>
15.7563

> <Gold.Chemscore.DG>
-17.8378

> <Gold.Chemscore.ZeroCoef>
-5.4800

> <Gold.Chemscore.Hbond>
2.4705

> <Gold.Chemscore.Metal>
0.0000

> <Gold.Chemscore.Lipo>
77.4845

> <Gold.Chemscore.Internal_Hbond>
0.0000

> <Gold.Chemscore.DEClash>
0.1981

> <Gold.Chemscore.DEInternal>
1.8834

> <Gold.Chemscore.Rot>
1.9373

> <Gold.Chemscore.Internal.Correction>
   9.000000E+99

> <Gold.Chemscore.Hbonds>
donor molecule, donor type, donor heavy atom, donor atom, acceptor molecule, acceptor atom, score
      P1  H  7997  8010       L1    19  0.78
      P1  H 10752 10765       L1     8  0.02

> <Gold.Chemscore.Hbond.Weighted>
-8.2516

> <Gold.Chemscore.Metal.Weighted>
-0.0000

> <Gold.Chemscore.Lipo.Weighted>
-9.0657

> <Gold.Chemscore.Internal_Hbond.Weighted>
0.0000

> <Gold.Chemscore.DEClash.Weighted>
0.1981

> <Gold.Chemscore.DEInternal.Weighted>
1.8834

> <Gold.Chemscore.Rot.Weighted>
4.9594

> <Gold.Chemscore.Internal.Correction.Weighted>
   9.000000E+99

> <Gold.Protein.RotatedTorsions>
[ 6907 6896 6895 6894 ] final  -43.81 input  -60.11 | X-H torsion
[ 7974 7965 7964 7962 ] final  146.44 input  175.53 | X-H torsion
[ 8008 7997 7996 7995 ] final   46.11 input   59.86 | X-H torsion
[ 10167 10162 10161 10158 ] final  -33.77 input  -65.29 | X-H torsion
[ 10718 10713 10712 10709 ] final -126.04 input   66.30 | X-H torsion
[ 10763 10752 10751 10750 ] final -145.76 input  -60.55 | X-H torsion
[ 11005 11000 10999 10996 ] final   79.22 input  -57.11 | X-H torsion

> <Gold.Protein.ActiveResidues>
 VAL166  LYS551  ARG553  GLY616  TRP617  ASP618  TYR619  PRO620  LYS621  CYS622 
 ASP623  PHE694  ASN695  SER759  ASP760  ASP761  ALA762  ILE779  LEU786  VAL792 
 PHE793  MET794  SER795  GLU796  ALA797  LYS798  CYS799  TRP800  GLU811  SER814 

> <Gold.Protein.RotatedAtoms>
  150.9398  134.8808  159.7604 H   0  0  0  0  0  0  0  0  0  0  0  0  # atno 6907 bound_to 6896
  152.5075  134.3958  159.9409 H   0  0  0  0  0  0  0  0  0  0  0  0  # atno 6908 bound_to 6896
  151.3980  133.3727  159.2763 H   0  0  0  0  0  0  0  0  0  0  0  0  # atno 6909 bound_to 6896
  144.8671  139.5905  143.5904 H   0  0  0  0  0  0  0  0  0  0  0  0  # atno 7974 bound_to 7965
  155.3470  140.3411  155.4239 H   0  0  0  0  0  0  0  0  0  0  0  0  # atno 8008 bound_to 7997
  156.1784  140.1655  156.8356 H   0  0  0  0  0  0  0  0  0  0  0  0  # atno 8009 bound_to 7997
  154.5306  140.0746  156.8321 H   0  0  0  0  0  0  0  0  0  0  0  0  # atno 8010 bound_to 7997
  140.7198  143.3596  151.1990 H   0  0  0  0  0  0  0  0  0  0  0  0  # atno 10167 bound_to 10162
  156.1730  130.6680  151.0205 H   0  0  0  0  0  0  0  0  0  0  0  0  # atno 10718 bound_to 10713
  154.8368  135.3404  154.6555 H   0  0  0  0  0  0  0  0  0  0  0  0  # atno 10763 bound_to 10752
  153.7169  135.6960  153.5027 H   0  0  0  0  0  0  0  0  0  0  0  0  # atno 10764 bound_to 10752
  153.2410  135.4384  155.0651 H   0  0  0  0  0  0  0  0  0  0  0  0  # atno 10765 bound_to 10752
  139.9181  134.7825  156.1751 H   0  0  0  0  0  0  0  0  0  0  0  0  # atno 11005 bound_to 11000
  146.2903  139.7121  142.9165 LP  0  0  0  0  0  0  0  0  0  0  0  0  # atno 17320 bound_to 7965
  145.4201  141.0405  143.2969 LP  0  0  0  0  0  0  0  0  0  0  0  0  # atno 17321 bound_to 7965
  139.7145  143.9323  152.2961 LP  0  0  0  0  0  0  0  0  0  0  0  0  # atno 17342 bound_to 10162
  139.9059  144.6885  150.8615 LP  0  0  0  0  0  0  0  0  0  0  0  0  # atno 17343 bound_to 10162
  157.6816  131.0836  150.7355 LP  0  0  0  0  0  0  0  0  0  0  0  0  # atno 17370 bound_to 10713
  156.7414  130.4740  149.5477 LP  0  0  0  0  0  0  0  0  0  0  0  0  # atno 17371 bound_to 10713
  141.0677  133.6811  156.2077 LP  0  0  0  0  0  0  0  0  0  0  0  0  # atno 17394 bound_to 11000
  140.6558  134.5019  157.5580 LP  0  0  0  0  0  0  0  0  0  0  0  0  # atno 17395 bound_to 11000

$$$$
