AV-unprocessed.smi:3056|AV-procd|sdf|11656|dock1
  -GOLD-   2272017 53D 1   1.00000     0.00000
 Structure written by MMmdl.
 47 48  0  0  0  0  0  0  0  0  1 V2000
  152.2950  144.9887  158.8969 C   0  0  0  0  0  0  0  0  0  0  0  0
  151.9641  143.5723  158.5240 C   0  0  0  0  0  0  0  0  0  0  0  0
  152.0245  142.4127  159.3470 C   0  0  0  0  0  0  0  0  0  0  0  0
  151.6756  141.3091  158.7066 N   0  0  0  0  0  0  0  0  0  0  0  0
  151.3620  141.7210  157.4591 N   0  0  0  0  0  0  0  0  0  0  0  0
  150.9663  140.7367  156.4553 C   0  0  1  0  0  0  0  0  0  0  0  0
  152.0321  139.6308  156.3025 C   0  0  0  0  0  0  0  0  0  0  0  0
  149.5303  140.2054  156.7140 C   0  0  1  0  0  0  0  0  0  0  0  0
  148.8732  139.6443  155.4368 C   0  0  0  0  0  0  0  0  0  0  0  0
  149.5731  139.2098  157.7821 N   0  0  0  0  0  0  0  0  0  0  0  0
  148.4459  138.2689  157.7802 C   0  0  0  0  0  0  0  0  0  0  0  0
  148.4364  137.4210  159.0578 C   0  0  0  0  0  0  0  0  0  0  0  0
  149.5125  137.2223  159.6218 O   0  0  0  0  0  0  0  0  0  0  0  0
  147.2692  136.9069  159.5182 N   0  0  0  0  0  0  0  0  0  0  0  0
  145.9659  137.2379  158.9388 C   0  0  0  0  0  0  0  0  0  0  0  0
  145.1912  138.0802  159.9696 C   0  0  0  0  0  0  0  0  0  0  0  0
  145.0745  137.3610  161.1974 O   0  0  0  0  0  0  0  0  0  0  0  0
  146.3319  136.9840  161.7592 C   0  0  1  0  0  0  0  0  0  0  0  0
  146.0764  136.2437  163.0758 C   0  0  0  0  0  0  0  0  0  0  0  0
  147.0903  136.1135  160.7374 C   0  0  0  0  0  0  0  0  0  0  0  0
  151.5416  143.0842  157.3207 C   0  0  0  0  0  0  0  0  0  0  0  0
  152.9385  145.0362  159.7755 H   0  0  0  0  0  0  0  0  0  0  0  0
  151.3976  145.5642  159.1239 H   0  0  0  0  0  0  0  0  0  0  0  0
  152.8149  145.5067  158.0909 H   0  0  0  0  0  0  0  0  0  0  0  0
  152.3173  142.3402  160.3842 H   0  0  0  0  0  0  0  0  0  0  0  0
  150.9430  141.2651  155.5003 H   0  0  0  0  0  0  0  0  0  0  0  0
  151.8243  138.9925  155.4440 H   0  0  0  0  0  0  0  0  0  0  0  0
  152.0862  138.9899  157.1828 H   0  0  0  0  0  0  0  0  0  0  0  0
  153.0211  140.0625  156.1470 H   0  0  0  0  0  0  0  0  0  0  0  0
  148.9289  141.0471  157.0615 H   0  0  0  0  0  0  0  0  0  0  0  0
  148.9818  140.3414  154.6055 H   0  0  0  0  0  0  0  0  0  0  0  0
  147.8041  139.4803  155.5699 H   0  0  0  0  0  0  0  0  0  0  0  0
  149.3191  138.6960  155.1354 H   0  0  0  0  0  0  0  0  0  0  0  0
  149.6169  139.7046  158.6618 H   0  0  0  0  0  0  0  0  0  0  0  0
  147.5097  138.8258  157.7160 H   0  0  0  0  0  0  0  0  0  0  0  0
  148.4809  137.6102  156.9131 H   0  0  0  0  0  0  0  0  0  0  0  0
  146.0443  137.7830  157.9974 H   0  0  0  0  0  0  0  0  0  0  0  0
  145.4206  136.3203  158.7131 H   0  0  0  0  0  0  0  0  0  0  0  0
  145.6929  139.0332  160.1457 H   0  0  0  0  0  0  0  0  0  0  0  0
  144.1926  138.3089  159.5972 H   0  0  0  0  0  0  0  0  0  0  0  0
  146.9072  137.8860  161.9758 H   0  0  0  0  0  0  0  0  0  0  0  0
  147.0149  135.9518  163.5482 H   0  0  0  0  0  0  0  0  0  0  0  0
  145.4868  135.3409  162.9137 H   0  0  0  0  0  0  0  0  0  0  0  0
  145.5334  136.8755  163.7790 H   0  0  0  0  0  0  0  0  0  0  0  0
  146.5131  135.2177  160.5035 H   0  0  0  0  0  0  0  0  0  0  0  0
  148.0240  135.7534  161.1657 H   0  0  0  0  0  0  0  0  0  0  0  0
  151.3616  143.5923  156.3847 H   0  0  0  0  0  0  0  0  0  0  0  0
  1  2  1  0  0  0  0
  1 22  1  0  0  0  0
  1 23  1  0  0  0  0
  1 24  1  0  0  0  0
  2 21  2  0  0  0  0
  2  3  1  0  0  0  0
  3  4  2  0  0  0  0
  3 25  1  0  0  0  0
  4  5  1  0  0  0  0
  5  6  1  0  0  0  0
  5 21  1  0  0  0  0
  6  7  1  0  0  0  0
  6  8  1  0  0  0  0
  6 26  1  0  0  0  0
  7 27  1  0  0  0  0
  7 28  1  0  0  0  0
  7 29  1  0  0  0  0
  8  9  1  0  0  0  0
  8 10  1  0  0  0  0
  8 30  1  0  0  0  0
  9 31  1  0  0  0  0
  9 32  1  0  0  0  0
  9 33  1  0  0  0  0
 10 11  1  0  0  0  0
 10 34  1  0  0  0  0
 11 12  1  0  0  0  0
 11 35  1  0  0  0  0
 11 36  1  0  0  0  0
 12 13  2  0  0  0  0
 12 14  1  0  0  0  0
 14 20  1  0  0  0  0
 14 15  1  0  0  0  0
 15 16  1  0  0  0  0
 15 37  1  0  0  0  0
 15 38  1  0  0  0  0
 16 17  1  0  0  0  0
 16 39  1  0  0  0  0
 16 40  1  0  0  0  0
 17 18  1  0  0  0  0
 18 19  1  0  0  0  0
 18 20  1  0  0  0  0
 18 41  1  0  0  0  0
 19 42  1  0  0  0  0
 19 43  1  0  0  0  0
 19 44  1  0  0  0  0
 20 45  1  0  0  0  0
 20 46  1  0  0  0  0
 21 47  1  0  0  0  0
M  END
> <s_m_source_file>
AV-unprocessed.smi

> <i_m_source_file_index>
3056

> <i_lp_mmshare_version>
43012

> <i_f3d_flags>
0

> <s_epik_input>
W0NIM11jMVtjSF1ubihbY0hdMSlbQ0BIXShbQ0gzXSlbQ0BIXShbQ0gzXSlbTkhdW0NIMl1DKD1PKU4yW0NIMl1bQ0gyXU9bQ0BASF0oW0NIM10pW0NIMl0y

> <s_epik_cmdline>
J2VwaWtfcHl0aG9uJywgJy1waCcsICc3LjAnLCAnLXRuJywgJzgnLCAnLW1hJywgJzIwMCcsICctbWV0YWxfYmluZGluZycsICctaW1hZScsICc8aW5maWxlLm1hZT4nLCAnLW9tYWUnLCAnPG91dGZpbGUubWFlPic=

> <r_lp_tautomer_probability>
1

> <r_epik_Ionization_Penalty>
0.667689

> <r_epik_Ionization_Penalty_Charging>
0

> <r_epik_Ionization_Penalty_Neutral>
0.667689

> <r_epik_State_Penalty>
0.684601

> <r_epik_Charging_Adjusted_Penalty>
0.684601

> <i_epik_Tot_Q>
0

> <i_epik_Tot_abs_Q>
0

> <r_epik_Metal_State_Penalty>
0.681448

> <b_epik_Metal_Only>
0

> <s_lp_Force_Field>
OPLS_2005

> <r_lp_Energy>
30.7947

> <b_lp_Chiralities_Consistent>
1

> <s_lp_Variant>
AV-unprocessed.smi:3056-12

> <Gold.Version>
5.8.1

> <Gold.Id.Protein>
6NUR|6NUR_protein|mol2

> <Gold.PLP.Fitness>
41.4120

> <Gold.PLP.PLP>
-37.6858

> <Gold.PLP.part.hbond>
-0.8549

> <Gold.PLP.part.metal>
0.0000

> <Gold.PLP.part.buried>
-5.5954

> <Gold.PLP.part.nonpolar>
-32.5078

> <Gold.PLP.part.repulsive>
0.0000

> <Gold.PLP.ligand.clash>
0.0000

> <Gold.PLP.ligand.torsion>
1.1285

> <Gold.PLP.Chemscore.Hbond>
0.9100

> <Gold.PLP.Chemscore.CHOScore>
1.0000

> <Gold.PLP.Chemscore.Metal>
0.0000

> <Gold.Chemscore.Hbonds>
donor molecule, donor type, donor heavy atom, donor atom, acceptor molecule, acceptor atom, score
      L1  C    21    47       P1  8028  0.30

> <Gold.PLP.Chemscore.Internal.Correction>
0.2533

> <Gold.Rescore>
     Score         DG    S(hbond)    S(metal)    S(lipo)     H(rot)  DE(clash)    DE(int)     intcor
     14.28     -15.38       0.83        0.00      97.75       1.68       0.01       1.09       ----

> <Gold.Chemscore.Fitness>
14.2774

> <Gold.Chemscore.DG>
-15.3761

> <Gold.Chemscore.ZeroCoef>
-5.4800

> <Gold.Chemscore.Hbond>
0.8259

> <Gold.Chemscore.Metal>
0.0000

> <Gold.Chemscore.Lipo>
97.7489

> <Gold.Chemscore.Internal_Hbond>
0.0000

> <Gold.Chemscore.DEClash>
0.0050

> <Gold.Chemscore.DEInternal>
1.0938

> <Gold.Chemscore.Rot>
1.6793

> <Gold.Chemscore.Internal.Correction>
   9.000000E+99

> <Gold.Chemscore.Hbond.Weighted>
-2.7586

> <Gold.Chemscore.Metal.Weighted>
-0.0000

> <Gold.Chemscore.Lipo.Weighted>
-11.4366

> <Gold.Chemscore.Internal_Hbond.Weighted>
0.0000

> <Gold.Chemscore.DEClash.Weighted>
0.0050

> <Gold.Chemscore.DEInternal.Weighted>
1.0938

> <Gold.Chemscore.Rot.Weighted>
4.2990

> <Gold.Chemscore.Internal.Correction.Weighted>
   9.000000E+99

> <Gold.Protein.RotatedTorsions>
[ 6907 6896 6895 6894 ] final   88.89 input  -60.11 | X-H torsion
[ 7974 7965 7964 7962 ] final   -0.32 input  175.53 | X-H torsion
[ 8008 7997 7996 7995 ] final  119.98 input   59.86 | X-H torsion
[ 10167 10162 10161 10158 ] final   55.87 input  -65.29 | X-H torsion
[ 10718 10713 10712 10709 ] final   86.91 input   66.30 | X-H torsion
[ 10763 10752 10751 10750 ] final -171.89 input  -60.55 | X-H torsion
[ 11005 11000 10999 10996 ] final -174.55 input  -57.11 | X-H torsion

> <Gold.Protein.ActiveResidues>
 VAL166  LYS551  ARG553  GLY616  TRP617  ASP618  TYR619  PRO620  LYS621  CYS622 
 ASP623  PHE694  ASN695  SER759  ASP760  ASP761  ALA762  ILE779  LEU786  VAL792 
 PHE793  MET794  SER795  GLU796  ALA797  LYS798  CYS799  TRP800  GLU811  SER814 

> <Gold.Protein.RotatedAtoms>
  152.5430  134.2051  159.8727 H   0  0  0  0  0  0  0  0  0  0  0  0  # atno 6907 bound_to 6896
  151.2037  133.4589  159.2604 H   0  0  0  0  0  0  0  0  0  0  0  0  # atno 6908 bound_to 6896
  151.0964  134.9959  159.8483 H   0  0  0  0  0  0  0  0  0  0  0  0  # atno 6909 bound_to 6896
  146.2428  140.1253  142.8339 H   0  0  0  0  0  0  0  0  0  0  0  0  # atno 7974 bound_to 7965
  156.2621  140.2841  156.1077 H   0  0  0  0  0  0  0  0  0  0  0  0  # atno 8008 bound_to 7997
  155.1291  140.0393  157.2787 H   0  0  0  0  0  0  0  0  0  0  0  0  # atno 8009 bound_to 7997
  154.6613  140.2567  155.7112 H   0  0  0  0  0  0  0  0  0  0  0  0  # atno 8010 bound_to 7997
  140.2148  144.3851  150.6474 H   0  0  0  0  0  0  0  0  0  0  0  0  # atno 10167 bound_to 10162
  157.6934  131.0234  150.3044 H   0  0  0  0  0  0  0  0  0  0  0  0  # atno 10718 bound_to 10713
  154.6254  135.2880  155.0278 H   0  0  0  0  0  0  0  0  0  0  0  0  # atno 10763 bound_to 10752
  154.1458  135.6511  153.4956 H   0  0  0  0  0  0  0  0  0  0  0  0  # atno 10764 bound_to 10752
  153.0255  135.5343  154.7060 H   0  0  0  0  0  0  0  0  0  0  0  0  # atno 10765 bound_to 10752
  140.4733  134.6145  157.4890 H   0  0  0  0  0  0  0  0  0  0  0  0  # atno 11005 bound_to 11000
  145.0372  140.8917  143.5074 LP  0  0  0  0  0  0  0  0  0  0  0  0  # atno 17320 bound_to 7965
  145.1327  139.2622  143.5531 LP  0  0  0  0  0  0  0  0  0  0  0  0  # atno 17321 bound_to 7965
  140.6297  143.2186  151.6521 LP  0  0  0  0  0  0  0  0  0  0  0  0  # atno 17342 bound_to 10162
  139.5166  144.3341  152.0800 LP  0  0  0  0  0  0  0  0  0  0  0  0  # atno 17343 bound_to 10162
  156.3555  130.3838  149.7294 LP  0  0  0  0  0  0  0  0  0  0  0  0  # atno 17370 bound_to 10713
  156.4758  130.8018  151.3034 LP  0  0  0  0  0  0  0  0  0  0  0  0  # atno 17371 bound_to 10713
  139.9872  134.7043  155.9754 LP  0  0  0  0  0  0  0  0  0  0  0  0  # atno 17394 bound_to 11000
  141.1566  133.6542  156.4183 LP  0  0  0  0  0  0  0  0  0  0  0  0  # atno 17395 bound_to 11000

$$$$
