AV-unprocessed.smi:2450|AV-procd|sdf|9667|dock7
  -GOLD-   2272013303D 1   1.00000     0.00000
 Structure written by MMmdl.
 42 43  0  0  0  0  0  0  0  0  2 V2000
  152.3954  142.9324  160.1216 C   0  0  0  0  0  0  0  0  0  0  0  0
  151.2531  142.7043  159.1211 C   0  0  0  0  0  0  0  0  0  0  0  0
  151.3663  143.5625  157.8471 C   0  0  2  0  0  0  0  0  0  0  0  0
  151.3873  145.0625  158.1732 C   0  0  0  0  0  0  0  0  0  0  0  0
  150.2517  143.2776  156.9444 N   0  0  0  0  0  0  0  0  0  0  0  0
  149.9935  142.0998  156.3575 C   0  0  0  0  0  0  0  0  0  0  0  0
  150.6920  141.0961  156.4966 O   0  0  0  0  0  0  0  0  0  0  0  0
  148.8897  142.1725  155.5949 N   0  0  0  0  0  0  0  0  0  0  0  0
  148.2887  141.1465  154.8110 C   0  0  0  0  0  0  0  0  0  0  0  0
  148.9358  139.9146  154.5351 C   0  0  0  0  0  0  0  0  0  0  0  0
  148.2735  138.9338  153.7704 C   0  0  0  0  0  0  0  0  0  0  0  0
  146.9730  139.1936  153.3006 C   0  0  0  0  0  0  0  0  0  0  0  0
  146.3788  140.3693  153.5927 N   0  3  0  0  0  0  0  0  0  0  0  0
  146.9716  141.3455  154.3234 C   0  0  0  0  0  0  0  0  0  0  0  0
  146.2613  142.5319  154.5767 N   0  0  0  0  0  0  0  0  0  0  0  0
  145.7919  143.2491  153.4031 C   0  0  0  0  0  0  0  0  0  0  0  0
  144.7625  144.2520  153.9281 C   0  0  0  0  0  0  0  0  0  0  0  0
  144.2797  143.6587  155.2575 C   0  0  0  0  0  0  0  0  0  0  0  0
  145.1065  142.3831  155.4466 C   0  0  0  0  0  0  0  0  0  0  0  0
  152.2421  142.3422  161.0252 H   0  0  0  0  0  0  0  0  0  0  0  0
  152.4551  143.9807  160.4159 H   0  0  0  0  0  0  0  0  0  0  0  0
  153.3600  142.6463  159.7023 H   0  0  0  0  0  0  0  0  0  0  0  0
  151.2140  141.6476  158.8536 H   0  0  0  0  0  0  0  0  0  0  0  0
  150.3080  142.9254  159.6186 H   0  0  0  0  0  0  0  0  0  0  0  0
  152.3149  143.3187  157.3655 H   0  0  0  0  0  0  0  0  0  0  0  0
  152.2221  145.3092  158.8299 H   0  0  0  0  0  0  0  0  0  0  0  0
  150.4690  145.3752  158.6717 H   0  0  0  0  0  0  0  0  0  0  0  0
  151.4957  145.6600  157.2674 H   0  0  0  0  0  0  0  0  0  0  0  0
  149.6190  144.0428  156.7624 H   0  0  0  0  0  0  0  0  0  0  0  0
  148.4744  143.0882  155.5035 H   0  0  0  0  0  0  0  0  0  0  0  0
  149.9243  139.6965  154.9094 H   0  0  0  0  0  0  0  0  0  0  0  0
  148.7562  137.9921  153.5526 H   0  0  0  0  0  0  0  0  0  0  0  0
  146.3914  138.4997  152.7108 H   0  0  0  0  0  0  0  0  0  0  0  0
  146.6155  143.7493  152.8928 H   0  0  0  0  0  0  0  0  0  0  0  0
  145.3208  142.5658  152.6952 H   0  0  0  0  0  0  0  0  0  0  0  0
  145.2353  145.2188  154.1052 H   0  0  0  0  0  0  0  0  0  0  0  0
  143.9488  144.4052  153.2187 H   0  0  0  0  0  0  0  0  0  0  0  0
  144.4687  144.3616  156.0699 H   0  0  0  0  0  0  0  0  0  0  0  0
  143.2111  143.4420  155.2490 H   0  0  0  0  0  0  0  0  0  0  0  0
  144.5207  141.5090  155.1583 H   0  0  0  0  0  0  0  0  0  0  0  0
  145.4126  142.2549  156.4853 H   0  0  0  0  0  0  0  0  0  0  0  0
  145.4332  140.5306  153.2456 H   0  0  0  0  0  0  0  0  0  0  0  0
  1  2  1  0  0  0  0
  1 20  1  0  0  0  0
  1 21  1  0  0  0  0
  1 22  1  0  0  0  0
  2  3  1  0  0  0  0
  2 23  1  0  0  0  0
  2 24  1  0  0  0  0
  3  4  1  0  0  0  0
  3  5  1  0  0  0  0
  3 25  1  0  0  0  0
  4 26  1  0  0  0  0
  4 27  1  0  0  0  0
  4 28  1  0  0  0  0
  5  6  1  0  0  0  0
  5 29  1  0  0  0  0
  6  7  2  0  0  0  0
  6  8  1  0  0  0  0
  8  9  1  0  0  0  0
  8 30  1  0  0  0  0
  9 14  1  0  0  0  0
  9 10  2  0  0  0  0
 10 11  1  0  0  0  0
 10 31  1  0  0  0  0
 11 12  2  0  0  0  0
 11 32  1  0  0  0  0
 12 13  1  0  0  0  0
 12 33  1  0  0  0  0
 13 14  2  0  0  0  0
 13 42  1  0  0  0  0
 14 15  1  0  0  0  0
 15 19  1  0  0  0  0
 15 16  1  0  0  0  0
 16 17  1  0  0  0  0
 16 34  1  0  0  0  0
 16 35  1  0  0  0  0
 17 18  1  0  0  0  0
 17 36  1  0  0  0  0
 17 37  1  0  0  0  0
 18 19  1  0  0  0  0
 18 38  1  0  0  0  0
 18 39  1  0  0  0  0
 19 40  1  0  0  0  0
 19 41  1  0  0  0  0
M  CHG  1  13   1
M  END
> <s_m_source_file>
AV-unprocessed.smi

> <i_m_source_file_index>
2450

> <i_lp_mmshare_version>
43012

> <i_f3d_flags>
0

> <s_epik_input>
W0NIM11bQ0gyXVtDQEhdKFtDSDNdKVtOSF1DKD1PKVtOSF1jMVtjSF1bY0hdW2NIXW5jMU4yW0NIMl1bQ0gyXVtDSDJdW0NIMl0y

> <s_epik_cmdline>
J2VwaWtfcHl0aG9uJywgJy1waCcsICc3LjAnLCAnLXRuJywgJzgnLCAnLW1hJywgJzIwMCcsICctbWV0YWxfYmluZGluZycsICctaW1hZScsICc8aW5maWxlLm1hZT4nLCAnLW9tYWUnLCAnPG91dGZpbGUubWFlPic=

> <r_lp_tautomer_probability>
0.999994

> <r_epik_Ionization_Penalty>
1.08838

> <r_epik_Ionization_Penalty_Charging>
1.08836

> <r_epik_Ionization_Penalty_Neutral>
2.1796e-05

> <r_epik_State_Penalty>
1.14442

> <r_epik_Charging_Adjusted_Penalty>
2.23278

> <i_epik_Tot_Q>
1

> <i_epik_Tot_abs_Q>
1

> <r_epik_Metal_State_Penalty>
1.23344

> <b_epik_Metal_Only>
0

> <s_lp_Force_Field>
OPLS_2005

> <r_lp_Energy>
40.8961

> <b_lp_Chiralities_Consistent>
1

> <s_lp_Variant>
AV-unprocessed.smi:2450-3

> <Gold.Version>
5.8.1

> <Gold.Id.Protein>
6NUR|6NUR_protein|mol2

> <Gold.PLP.Fitness>
49.6455

> <Gold.PLP.PLP>
-37.8660

> <Gold.PLP.part.hbond>
-3.0000

> <Gold.PLP.part.metal>
0.0000

> <Gold.PLP.part.buried>
-5.7004

> <Gold.PLP.part.nonpolar>
-29.7071

> <Gold.PLP.part.repulsive>
0.3827

> <Gold.PLP.ligand.clash>
0.0000

> <Gold.PLP.ligand.torsion>
0.1249

> <Gold.PLP.Chemscore.Hbond>
4.0000

> <Gold.PLP.Chemscore.CHOScore>
0.0000

> <Gold.PLP.Chemscore.Metal>
0.0000

> <Gold.Chemscore.Hbonds>
donor molecule, donor type, donor heavy atom, donor atom, acceptor molecule, acceptor atom, score
      L1  H     5    29       P1  8028  0.73
      L1  H     8    30       P1  8028  0.83
      L1  H    13    42       P1 10175  2.00

> <Gold.PLP.Chemscore.Internal.Correction>
0.0293

> <Gold.Rescore>
     Score         DG    S(hbond)    S(metal)    S(lipo)     H(rot)  DE(clash)    DE(int)     intcor
     20.66     -22.56       2.91        0.00      92.25       1.34       0.36       1.54       ----

> <Gold.Chemscore.Fitness>
20.6589

> <Gold.Chemscore.DG>
-22.5578

> <Gold.Chemscore.ZeroCoef>
-5.4800

> <Gold.Chemscore.Hbond>
2.9082

> <Gold.Chemscore.Metal>
0.0000

> <Gold.Chemscore.Lipo>
92.2481

> <Gold.Chemscore.Internal_Hbond>
0.0000

> <Gold.Chemscore.DEClash>
0.3580

> <Gold.Chemscore.DEInternal>
1.5409

> <Gold.Chemscore.Rot>
1.3393

> <Gold.Chemscore.Internal.Correction>
   9.000000E+99

> <Gold.Chemscore.Hbonds>
donor molecule, donor type, donor heavy atom, donor atom, acceptor molecule, acceptor atom, score
      L1  H     5    29       P1  8028  0.65
      L1  H     8    30       P1  8028  0.81
      L1  H    13    42       P1 10175  0.92

> <Gold.Chemscore.Hbond.Weighted>
-9.7133

> <Gold.Chemscore.Metal.Weighted>
-0.0000

> <Gold.Chemscore.Lipo.Weighted>
-10.7930

> <Gold.Chemscore.Internal_Hbond.Weighted>
0.0000

> <Gold.Chemscore.DEClash.Weighted>
0.3580

> <Gold.Chemscore.DEInternal.Weighted>
1.5409

> <Gold.Chemscore.Rot.Weighted>
3.4285

> <Gold.Chemscore.Internal.Correction.Weighted>
   9.000000E+99

> <Gold.Protein.RotatedTorsions>
[ 6907 6896 6895 6894 ] final   62.43 input  -60.11 | X-H torsion
[ 7974 7965 7964 7962 ] final  -30.67 input  175.53 | X-H torsion
[ 8008 7997 7996 7995 ] final  -59.93 input   59.86 | X-H torsion
[ 10167 10162 10161 10158 ] final   74.78 input  -65.29 | X-H torsion
[ 10718 10713 10712 10709 ] final -132.64 input   66.30 | X-H torsion
[ 10763 10752 10751 10750 ] final    8.16 input  -60.55 | X-H torsion
[ 11005 11000 10999 10996 ] final -168.97 input  -57.11 | X-H torsion

> <Gold.Protein.ActiveResidues>
 VAL166  LYS551  ARG553  GLY616  TRP617  ASP618  TYR619  PRO620  LYS621  CYS622 
 ASP623  PHE694  ASN695  SER759  ASP760  ASP761  ALA762  ILE779  LEU786  VAL792 
 PHE793  MET794  SER795  GLU796  ALA797  LYS798  CYS799  TRP800  GLU811  SER814 

> <Gold.Protein.RotatedAtoms>
  152.4171  134.6021  160.0002 H   0  0  0  0  0  0  0  0  0  0  0  0  # atno 6907 bound_to 6896
  151.6181  133.3336  159.3090 H   0  0  0  0  0  0  0  0  0  0  0  0  # atno 6908 bound_to 6896
  150.8060  134.7224  159.6710 H   0  0  0  0  0  0  0  0  0  0  0  0  # atno 6909 bound_to 6896
  146.1125  140.5570  142.8771 H   0  0  0  0  0  0  0  0  0  0  0  0  # atno 7974 bound_to 7965
  154.4375  140.1051  156.6194 H   0  0  0  0  0  0  0  0  0  0  0  0  # atno 8008 bound_to 7997
  155.5724  140.3489  155.4500 H   0  0  0  0  0  0  0  0  0  0  0  0  # atno 8009 bound_to 7997
  156.0380  140.1275  157.0176 H   0  0  0  0  0  0  0  0  0  0  0  0  # atno 8010 bound_to 7997
  140.0100  144.5621  150.7666 H   0  0  0  0  0  0  0  0  0  0  0  0  # atno 10167 bound_to 10162
  156.2367  130.7071  151.0915 H   0  0  0  0  0  0  0  0  0  0  0  0  # atno 10718 bound_to 10713
  153.2282  135.6889  153.7921 H   0  0  0  0  0  0  0  0  0  0  0  0  # atno 10763 bound_to 10752
  153.7095  135.3284  155.3244 H   0  0  0  0  0  0  0  0  0  0  0  0  # atno 10764 bound_to 10752
  154.8301  135.4587  154.1156 H   0  0  0  0  0  0  0  0  0  0  0  0  # atno 10765 bound_to 10752
  140.5360  134.5570  157.5087 H   0  0  0  0  0  0  0  0  0  0  0  0  # atno 11005 bound_to 11000
  144.7524  140.5224  143.6792 LP  0  0  0  0  0  0  0  0  0  0  0  0  # atno 17320 bound_to 7965
  145.5634  139.1480  143.3328 LP  0  0  0  0  0  0  0  0  0  0  0  0  # atno 17321 bound_to 7965
  140.7385  143.2779  151.3686 LP  0  0  0  0  0  0  0  0  0  0  0  0  # atno 17342 bound_to 10162
  139.6211  144.0904  152.2392 LP  0  0  0  0  0  0  0  0  0  0  0  0  # atno 17343 bound_to 10162
  157.7157  131.0711  150.6334 LP  0  0  0  0  0  0  0  0  0  0  0  0  # atno 17370 bound_to 10713
  156.6405  130.4457  149.5754 LP  0  0  0  0  0  0  0  0  0  0  0  0  # atno 17371 bound_to 10713
  139.9529  134.7585  156.0407 LP  0  0  0  0  0  0  0  0  0  0  0  0  # atno 17394 bound_to 11000
  141.1255  133.6600  156.3324 LP  0  0  0  0  0  0  0  0  0  0  0  0  # atno 17395 bound_to 11000

$$$$
