AV-unprocessed.smi:1458|AV-procd|sdf|5921|dock1
  -GOLD-   22720 6 03D 1   1.00000     0.00000
 Structure written by MMmdl.
 46 47  0  0  0  0  0  0  0  0  1 V2000
  144.9192  134.1173  151.0319 C   0  0  0  0  0  0  0  0  0  0  0  0
  145.1447  135.2804  151.8080 O   0  0  0  0  0  0  0  0  0  0  0  0
  145.6492  136.3586  151.0365 C   0  0  0  0  0  0  0  0  0  0  0  0
  145.6597  137.6315  151.8945 C   0  0  0  0  0  0  0  0  0  0  0  0
  147.0170  138.0177  152.2643 N   0  0  0  0  0  0  0  0  0  0  0  0
  147.3417  138.7774  153.3195 C   0  0  0  0  0  0  0  0  0  0  0  0
  146.5134  139.2450  154.1007 O   0  0  0  0  0  0  0  0  0  0  0  0
  148.6732  138.9316  153.4137 N   0  0  0  0  0  0  0  0  0  0  0  0
  149.4115  139.7059  154.3488 C   0  0  0  0  0  0  0  0  0  0  0  0
  150.7867  139.5263  154.6245 C   0  0  0  0  0  0  0  0  0  0  0  0
  151.3984  140.3383  155.5990 C   0  0  0  0  0  0  0  0  0  0  0  0
  150.6238  141.3046  156.2832 C   0  0  0  0  0  0  0  0  0  0  0  0
  151.2154  142.1191  157.2736 N   0  0  0  0  0  0  0  0  0  0  0  0
  151.9426  141.4037  158.3191 C   0  0  0  0  0  0  0  0  0  0  0  0
  152.7821  142.3833  159.1611 C   0  0  2  0  0  0  0  0  0  0  0  0
  153.4618  141.6869  160.3446 C   0  0  0  0  0  0  0  0  0  0  0  0
  151.9353  143.4086  159.6729 O   0  0  0  0  0  0  0  0  0  0  0  0
  151.3215  144.1728  158.6388 C   0  0  2  0  0  0  0  0  0  0  0  0
  150.5123  145.2993  159.2897 C   0  0  0  0  0  0  0  0  0  0  0  0
  150.4370  143.2464  157.7837 C   0  0  0  0  0  0  0  0  0  0  0  0
  149.3055  141.4729  156.0151 N   0  0  0  0  0  0  0  0  0  0  0  0
  148.7226  140.6918  155.0822 C   0  0  0  0  0  0  0  0  0  0  0  0
  144.5359  133.3206  151.6692 H   0  0  0  0  0  0  0  0  0  0  0  0
  145.8429  133.7647  150.5710 H   0  0  0  0  0  0  0  0  0  0  0  0
  144.1847  134.3039  150.2473 H   0  0  0  0  0  0  0  0  0  0  0  0
  146.6646  136.1302  150.7092 H   0  0  0  0  0  0  0  0  0  0  0  0
  145.0442  136.5051  150.1401 H   0  0  0  0  0  0  0  0  0  0  0  0
  145.2003  138.4544  151.3464 H   0  0  0  0  0  0  0  0  0  0  0  0
  145.0566  137.4843  152.7919 H   0  0  0  0  0  0  0  0  0  0  0  0
  147.7628  137.6681  151.6807 H   0  0  0  0  0  0  0  0  0  0  0  0
  149.2281  138.4042  152.7555 H   0  0  0  0  0  0  0  0  0  0  0  0
  151.3797  138.7775  154.1234 H   0  0  0  0  0  0  0  0  0  0  0  0
  152.4513  140.2141  155.8038 H   0  0  0  0  0  0  0  0  0  0  0  0
  151.2217  140.8860  158.9532 H   0  0  0  0  0  0  0  0  0  0  0  0
  152.6004  140.6426  157.9018 H   0  0  0  0  0  0  0  0  0  0  0  0
  153.5539  142.8362  158.5360 H   0  0  0  0  0  0  0  0  0  0  0  0
  154.1331  140.8987  160.0031 H   0  0  0  0  0  0  0  0  0  0  0  0
  152.7270  141.2353  161.0116 H   0  0  0  0  0  0  0  0  0  0  0  0
  154.0504  142.3955  160.9276 H   0  0  0  0  0  0  0  0  0  0  0  0
  152.0977  144.6193  158.0145 H   0  0  0  0  0  0  0  0  0  0  0  0
  150.0321  145.9233  158.5355 H   0  0  0  0  0  0  0  0  0  0  0  0
  151.1536  145.9416  159.8934 H   0  0  0  0  0  0  0  0  0  0  0  0
  149.7334  144.9002  159.9401 H   0  0  0  0  0  0  0  0  0  0  0  0
  150.0146  143.8148  156.9540 H   0  0  0  0  0  0  0  0  0  0  0  0
  149.6043  142.8681  158.3786 H   0  0  0  0  0  0  0  0  0  0  0  0
  147.6688  140.8626  154.9164 H   0  0  0  0  0  0  0  0  0  0  0  0
  1  2  1  0  0  0  0
  1 23  1  0  0  0  0
  1 24  1  0  0  0  0
  1 25  1  0  0  0  0
  2  3  1  0  0  0  0
  3  4  1  0  0  0  0
  3 26  1  0  0  0  0
  3 27  1  0  0  0  0
  4  5  1  0  0  0  0
  4 28  1  0  0  0  0
  4 29  1  0  0  0  0
  5  6  1  0  0  0  0
  5 30  1  0  0  0  0
  6  7  2  0  0  0  0
  6  8  1  0  0  0  0
  8  9  1  0  0  0  0
  8 31  1  0  0  0  0
  9 22  1  0  0  0  0
  9 10  2  0  0  0  0
 10 11  1  0  0  0  0
 10 32  1  0  0  0  0
 11 12  2  0  0  0  0
 11 33  1  0  0  0  0
 12 13  1  0  0  0  0
 12 21  1  0  0  0  0
 13 20  1  0  0  0  0
 13 14  1  0  0  0  0
 14 15  1  0  0  0  0
 14 34  1  0  0  0  0
 14 35  1  0  0  0  0
 15 16  1  0  0  0  0
 15 17  1  0  0  0  0
 15 36  1  0  0  0  0
 16 37  1  0  0  0  0
 16 38  1  0  0  0  0
 16 39  1  0  0  0  0
 17 18  1  0  0  0  0
 18 19  1  0  0  0  0
 18 20  1  0  0  0  0
 18 40  1  0  0  0  0
 19 41  1  0  0  0  0
 19 42  1  0  0  0  0
 19 43  1  0  0  0  0
 20 44  1  0  0  0  0
 20 45  1  0  0  0  0
 21 22  2  0  0  0  0
 22 46  1  0  0  0  0
M  END
> <s_m_source_file>
AV-unprocessed.smi

> <i_m_source_file_index>
1458

> <i_lp_mmshare_version>
43012

> <i_f3d_flags>
0

> <s_epik_input>
W0NIM11PW0NIMl1bQ0gyXVtOSF1DKD1PKVtOSF1jMVtjSF1bY0hdYyhuW2NIXTEpTjJbQ0gyXVtDQEBIXShbQ0gzXSlPW0NAQEhdKFtDSDNdKVtDSDJdMg==

> <s_epik_cmdline>
J2VwaWtfcHl0aG9uJywgJy1waCcsICc3LjAnLCAnLXRuJywgJzgnLCAnLW1hJywgJzIwMCcsICctbWV0YWxfYmluZGluZycsICctaW1hZScsICc8aW5maWxlLm1hZT4nLCAnLW9tYWUnLCAnPG91dGZpbGUubWFlPic=

> <r_lp_tautomer_probability>
1

> <r_epik_Ionization_Penalty>
0.00266072

> <r_epik_Ionization_Penalty_Charging>
0

> <r_epik_Ionization_Penalty_Neutral>
0.00266072

> <r_epik_State_Penalty>
0.00182795

> <r_epik_Charging_Adjusted_Penalty>
0.00182795

> <i_epik_Tot_Q>
0

> <i_epik_Tot_abs_Q>
0

> <r_epik_Metal_State_Penalty>
-0

> <b_epik_Metal_Only>
0

> <s_lp_Force_Field>
OPLS_2005

> <r_lp_Energy>
18.5375

> <b_lp_Chiralities_Consistent>
1

> <s_lp_Variant>
AV-unprocessed.smi:1458-1

> <Gold.Version>
5.8.1

> <Gold.Id.Protein>
6NUR|6NUR_protein|mol2

> <Gold.PLP.Fitness>
47.9539

> <Gold.PLP.PLP>
-43.7624

> <Gold.PLP.part.hbond>
-2.7891

> <Gold.PLP.part.metal>
0.0000

> <Gold.PLP.part.buried>
-1.7482

> <Gold.PLP.part.nonpolar>
-40.2762

> <Gold.PLP.part.repulsive>
0.5470

> <Gold.PLP.ligand.clash>
0.0000

> <Gold.PLP.ligand.torsion>
0.7475

> <Gold.PLP.Chemscore.Hbond>
1.7670

> <Gold.PLP.Chemscore.CHOScore>
0.0000

> <Gold.PLP.Chemscore.Metal>
0.0000

> <Gold.Chemscore.Hbonds>
donor molecule, donor type, donor heavy atom, donor atom, acceptor molecule, acceptor atom, score
      L1  H     5    30       P1  7948  0.69
      L1  H     8    31       P1  7948  0.17

> <Gold.PLP.Chemscore.Internal.Correction>
0.3855

> <Gold.Rescore>
     Score         DG    S(hbond)    S(metal)    S(lipo)     H(rot)  DE(clash)    DE(int)     intcor
     17.86     -19.97       1.96        0.00     103.33       1.62       0.08       2.03       ----

> <Gold.Chemscore.Fitness>
17.8630

> <Gold.Chemscore.DG>
-19.9711

> <Gold.Chemscore.ZeroCoef>
-5.4800

> <Gold.Chemscore.Hbond>
1.9612

> <Gold.Chemscore.Metal>
0.0000

> <Gold.Chemscore.Lipo>
103.3294

> <Gold.Chemscore.Internal_Hbond>
0.0000

> <Gold.Chemscore.DEClash>
0.0808

> <Gold.Chemscore.DEInternal>
2.0274

> <Gold.Chemscore.Rot>
1.6206

> <Gold.Chemscore.Internal.Correction>
   9.000000E+99

> <Gold.Chemscore.Hbonds>
donor molecule, donor type, donor heavy atom, donor atom, acceptor molecule, acceptor atom, score
      L1  H     5    30       P1  7948  0.70
      L1  H     8    31       P1  7948  0.17

> <Gold.Chemscore.Hbond.Weighted>
-6.5503

> <Gold.Chemscore.Metal.Weighted>
-0.0000

> <Gold.Chemscore.Lipo.Weighted>
-12.0895

> <Gold.Chemscore.Internal_Hbond.Weighted>
0.0000

> <Gold.Chemscore.DEClash.Weighted>
0.0808

> <Gold.Chemscore.DEInternal.Weighted>
2.0274

> <Gold.Chemscore.Rot.Weighted>
4.1486

> <Gold.Chemscore.Internal.Correction.Weighted>
   9.000000E+99

> <Gold.Protein.RotatedTorsions>
[ 6907 6896 6895 6894 ] final  113.39 input  -60.11 | X-H torsion
[ 7974 7965 7964 7962 ] final  -23.36 input  175.53 | X-H torsion
[ 8008 7997 7996 7995 ] final -159.53 input   59.86 | X-H torsion
[ 10167 10162 10161 10158 ] final -172.13 input  -65.29 | X-H torsion
[ 10718 10713 10712 10709 ] final  168.75 input   66.30 | X-H torsion
[ 10763 10752 10751 10750 ] final   24.42 input  -60.55 | X-H torsion
[ 11005 11000 10999 10996 ] final   21.67 input  -57.11 | X-H torsion

> <Gold.Protein.ActiveResidues>
 VAL166  LYS551  ARG553  GLY616  TRP617  ASP618  TYR619  PRO620  LYS621  CYS622 
 ASP623  PHE694  ASN695  SER759  ASP760  ASP761  ALA762  ILE779  LEU786  VAL792 
 PHE793  MET794  SER795  GLU796  ALA797  LYS798  CYS799  TRP800  GLU811  SER814 

> <Gold.Protein.RotatedAtoms>
  152.4863  133.8382  159.7138 H   0  0  0  0  0  0  0  0  0  0  0  0  # atno 6907 bound_to 6896
  150.8953  133.7180  159.2900 H   0  0  0  0  0  0  0  0  0  0  0  0  # atno 6908 bound_to 6896
  151.4640  135.1044  159.9785 H   0  0  0  0  0  0  0  0  0  0  0  0  # atno 6909 bound_to 6896
  146.1621  140.4605  142.8567 H   0  0  0  0  0  0  0  0  0  0  0  0  # atno 7974 bound_to 7965
  155.7640  140.0843  157.2141 H   0  0  0  0  0  0  0  0  0  0  0  0  # atno 8008 bound_to 7997
  154.4001  140.1537  156.2921 H   0  0  0  0  0  0  0  0  0  0  0  0  # atno 8009 bound_to 7997
  155.8812  140.3420  155.5892 H   0  0  0  0  0  0  0  0  0  0  0  0  # atno 8010 bound_to 7997
  139.5762  144.1527  152.1453 H   0  0  0  0  0  0  0  0  0  0  0  0  # atno 10167 bound_to 10162
  157.0326  131.0264  151.2739 H   0  0  0  0  0  0  0  0  0  0  0  0  # atno 10718 bound_to 10713
  153.0765  135.6606  154.0134 H   0  0  0  0  0  0  0  0  0  0  0  0  # atno 10763 bound_to 10752
  153.9766  135.2959  155.3425 H   0  0  0  0  0  0  0  0  0  0  0  0  # atno 10764 bound_to 10752
  154.7155  135.5187  153.8802 H   0  0  0  0  0  0  0  0  0  0  0  0  # atno 10765 bound_to 10752
  140.3890  134.1839  155.7662 H   0  0  0  0  0  0  0  0  0  0  0  0  # atno 11005 bound_to 11000
  144.8041  140.6268  143.6458 LP  0  0  0  0  0  0  0  0  0  0  0  0  # atno 17320 bound_to 7965
  145.4562  139.1518  143.3891 LP  0  0  0  0  0  0  0  0  0  0  0  0  # atno 17321 bound_to 7965
  140.1070  144.5490  150.6950 LP  0  0  0  0  0  0  0  0  0  0  0  0  # atno 17342 bound_to 10162
  140.7044  143.2458  151.4769 LP  0  0  0  0  0  0  0  0  0  0  0  0  # atno 17343 bound_to 10162
  157.5166  130.7971  149.7762 LP  0  0  0  0  0  0  0  0  0  0  0  0  # atno 17370 bound_to 10713
  156.0064  130.3853  150.2416 LP  0  0  0  0  0  0  0  0  0  0  0  0  # atno 17371 bound_to 10713
  141.1897  133.8232  157.0945 LP  0  0  0  0  0  0  0  0  0  0  0  0  # atno 17394 bound_to 11000
  140.0421  134.9849  157.0981 LP  0  0  0  0  0  0  0  0  0  0  0  0  # atno 17395 bound_to 11000

$$$$
