AV-unprocessed.smi:1849|AV-procd|sdf|7520|dock8
  -GOLD-   22720 9233D 1   1.00000     0.00000
 Structure written by MMmdl.
 41 42  0  0  0  0  0  0  0  0  2 V2000
  146.9588  133.3441  151.6919 C   0  0  0  0  0  0  0  0  0  0  0  0
  145.5853  133.0831  151.2553 N   0  0  0  0  0  0  0  0  0  0  0  0
  144.9598  131.8635  151.2104 C   0  0  0  0  0  0  0  0  0  0  0  0
  143.6922  132.0889  150.7401 C   0  0  0  0  0  0  0  0  0  0  0  0
  143.5962  133.4359  150.5182 N   0  3  0  0  0  0  0  0  0  0  0  0
  144.7456  134.0436  150.8348 C   0  0  0  0  0  0  0  0  0  0  0  0
  145.0171  135.5098  150.7109 C   0  0  0  0  0  0  0  0  0  0  0  0
  144.9269  136.2465  152.0576 C   0  0  0  0  0  0  0  0  0  0  0  0
  146.2285  136.7460  152.4833 N   0  0  0  0  0  0  0  0  0  0  0  0
  146.4140  137.7174  153.3882 C   0  0  0  0  0  0  0  0  0  0  0  0
  145.4977  138.3031  153.9657 O   0  0  0  0  0  0  0  0  0  0  0  0
  147.7148  137.9775  153.5802 N   0  0  0  0  0  0  0  0  0  0  0  0
  148.2462  138.9898  154.4878 C   0  0  0  0  0  0  0  0  0  0  0  0
  147.6437  140.3745  154.1692 C   0  0  0  0  0  0  0  0  0  0  0  0
  148.2528  141.4717  155.0568 C   0  0  0  0  0  0  0  0  0  0  0  0
  149.7849  141.4976  154.9409 C   0  0  0  0  0  0  0  0  0  0  0  0
  150.3874  140.1226  155.2681 C   0  0  0  0  0  0  0  0  0  0  0  0
  149.7828  139.0235  154.3794 C   0  0  0  0  0  0  0  0  0  0  0  0
  147.4581  132.3996  151.9103 H   0  0  0  0  0  0  0  0  0  0  0  0
  146.9402  133.9593  152.5920 H   0  0  0  0  0  0  0  0  0  0  0  0
  147.5014  133.8623  150.9007 H   0  0  0  0  0  0  0  0  0  0  0  0
  145.4506  130.9480  151.5076 H   0  0  0  0  0  0  0  0  0  0  0  0
  142.8736  131.4096  150.5511 H   0  0  0  0  0  0  0  0  0  0  0  0
  146.0130  135.6147  150.2785 H   0  0  0  0  0  0  0  0  0  0  0  0
  144.3083  135.9108  149.9859 H   0  0  0  0  0  0  0  0  0  0  0  0
  144.2178  137.0738  151.9992 H   0  0  0  0  0  0  0  0  0  0  0  0
  144.5522  135.5711  152.8272 H   0  0  0  0  0  0  0  0  0  0  0  0
  147.0431  136.3227  152.0628 H   0  0  0  0  0  0  0  0  0  0  0  0
  148.3902  137.4401  153.0563 H   0  0  0  0  0  0  0  0  0  0  0  0
  147.9856  138.7196  155.5132 H   0  0  0  0  0  0  0  0  0  0  0  0
  147.8179  140.6207  153.1207 H   0  0  0  0  0  0  0  0  0  0  0  0
  146.5617  140.3560  154.3056 H   0  0  0  0  0  0  0  0  0  0  0  0
  147.8426  142.4435  154.7806 H   0  0  0  0  0  0  0  0  0  0  0  0
  147.9682  141.2999  156.0957 H   0  0  0  0  0  0  0  0  0  0  0  0
  150.0707  141.7912  153.9299 H   0  0  0  0  0  0  0  0  0  0  0  0
  150.1958  142.2533  155.6108 H   0  0  0  0  0  0  0  0  0  0  0  0
  151.4698  140.1509  155.1388 H   0  0  0  0  0  0  0  0  0  0  0  0
  150.2073  139.8852  156.3173 H   0  0  0  0  0  0  0  0  0  0  0  0
  150.1992  138.0555  154.6606 H   0  0  0  0  0  0  0  0  0  0  0  0
  150.0773  139.1973  153.3432 H   0  0  0  0  0  0  0  0  0  0  0  0
  142.7732  133.9086  150.1659 H   0  0  0  0  0  0  0  0  0  0  0  0
  1  2  1  0  0  0  0
  1 19  1  0  0  0  0
  1 20  1  0  0  0  0
  1 21  1  0  0  0  0
  2  6  1  0  0  0  0
  2  3  1  0  0  0  0
  3  4  2  0  0  0  0
  3 22  1  0  0  0  0
  4  5  1  0  0  0  0
  4 23  1  0  0  0  0
  5  6  2  0  0  0  0
  5 41  1  0  0  0  0
  6  7  1  0  0  0  0
  7  8  1  0  0  0  0
  7 24  1  0  0  0  0
  7 25  1  0  0  0  0
  8  9  1  0  0  0  0
  8 26  1  0  0  0  0
  8 27  1  0  0  0  0
  9 10  1  0  0  0  0
  9 28  1  0  0  0  0
 10 11  2  0  0  0  0
 10 12  1  0  0  0  0
 12 13  1  0  0  0  0
 12 29  1  0  0  0  0
 13 18  1  0  0  0  0
 13 14  1  0  0  0  0
 13 30  1  0  0  0  0
 14 15  1  0  0  0  0
 14 31  1  0  0  0  0
 14 32  1  0  0  0  0
 15 16  1  0  0  0  0
 15 33  1  0  0  0  0
 15 34  1  0  0  0  0
 16 17  1  0  0  0  0
 16 35  1  0  0  0  0
 16 36  1  0  0  0  0
 17 18  1  0  0  0  0
 17 37  1  0  0  0  0
 17 38  1  0  0  0  0
 18 39  1  0  0  0  0
 18 40  1  0  0  0  0
M  CHG  1   5   1
M  END
> <s_m_source_file>
AV-unprocessed.smi

> <i_m_source_file_index>
1849

> <i_lp_mmshare_version>
43012

> <i_f3d_flags>
0

> <s_epik_input>
W0NIM11uMVtjSF1bY0hdbmMxW0NIMl1bQ0gyXVtOSF1DKD1PKVtOSF1bQ0hdMltDSDJdW0NIMl1bQ0gyXVtDSDJdW0NIMl0y

> <s_epik_cmdline>
J2VwaWtfcHl0aG9uJywgJy1waCcsICc3LjAnLCAnLXRuJywgJzgnLCAnLW1hJywgJzIwMCcsICctbWV0YWxfYmluZGluZycsICctaW1hZScsICc8aW5maWxlLm1hZT4nLCAnLW9tYWUnLCAnPG91dGZpbGUubWFlPic=

> <r_lp_tautomer_probability>
1

> <r_epik_Ionization_Penalty>
0.0507041

> <r_epik_Ionization_Penalty_Charging>
0

> <r_epik_Ionization_Penalty_Neutral>
0.0507041

> <r_epik_State_Penalty>
0.0433397

> <r_epik_Charging_Adjusted_Penalty>
0.0433397

> <i_epik_Tot_Q>
1

> <i_epik_Tot_abs_Q>
1

> <r_epik_Metal_State_Penalty>
0.385258

> <b_epik_Metal_Only>
0

> <s_lp_Force_Field>
OPLS_2005

> <r_lp_Energy>
7.33452

> <b_lp_Chiralities_Consistent>
1

> <s_lp_Variant>
AV-unprocessed.smi:1849-1

> <Gold.Version>
5.8.1

> <Gold.Id.Protein>
6NUR|6NUR_protein|mol2

> <Gold.PLP.Fitness>
45.4562

> <Gold.PLP.PLP>
-34.9975

> <Gold.PLP.part.hbond>
-3.0000

> <Gold.PLP.part.metal>
0.0000

> <Gold.PLP.part.buried>
-3.5164

> <Gold.PLP.part.nonpolar>
-28.1085

> <Gold.PLP.part.repulsive>
0.2413

> <Gold.PLP.ligand.clash>
0.0000

> <Gold.PLP.ligand.torsion>
0.7749

> <Gold.PLP.Chemscore.Hbond>
4.0000

> <Gold.PLP.Chemscore.CHOScore>
0.0000

> <Gold.PLP.Chemscore.Metal>
0.0000

> <Gold.Chemscore.Hbonds>
donor molecule, donor type, donor heavy atom, donor atom, acceptor molecule, acceptor atom, score
      L1  H     5    41       P1 10186  2.00
      L1  H     9    28       P1  7948  1.00
      L1  H    12    29       P1  7948  1.00

> <Gold.PLP.Chemscore.Internal.Correction>
0.0085

> <Gold.Rescore>
     Score         DG    S(hbond)    S(metal)    S(lipo)     H(rot)  DE(clash)    DE(int)     intcor
     17.77     -19.27       2.93        0.00      71.88       1.73       0.03       1.47       ----

> <Gold.Chemscore.Fitness>
17.7720

> <Gold.Chemscore.DG>
-19.2702

> <Gold.Chemscore.ZeroCoef>
-5.4800

> <Gold.Chemscore.Hbond>
2.9340

> <Gold.Chemscore.Metal>
0.0000

> <Gold.Chemscore.Lipo>
71.8837

> <Gold.Chemscore.Internal_Hbond>
0.0000

> <Gold.Chemscore.DEClash>
0.0312

> <Gold.Chemscore.DEInternal>
1.4670

> <Gold.Chemscore.Rot>
1.7265

> <Gold.Chemscore.Internal.Correction>
   9.000000E+99

> <Gold.Chemscore.Hbonds>
donor molecule, donor type, donor heavy atom, donor atom, acceptor molecule, acceptor atom, score
      L1  H     5    41       P1 10186  0.98
      L1  H     9    28       P1  7948  0.95
      L1  H    12    29       P1  7948  0.99

> <Gold.Chemscore.Hbond.Weighted>
-9.7997

> <Gold.Chemscore.Metal.Weighted>
-0.0000

> <Gold.Chemscore.Lipo.Weighted>
-8.4104

> <Gold.Chemscore.Internal_Hbond.Weighted>
0.0000

> <Gold.Chemscore.DEClash.Weighted>
0.0312

> <Gold.Chemscore.DEInternal.Weighted>
1.4670

> <Gold.Chemscore.Rot.Weighted>
4.4199

> <Gold.Chemscore.Internal.Correction.Weighted>
   9.000000E+99

> <Gold.Protein.RotatedTorsions>
[ 6907 6896 6895 6894 ] final   77.39 input  -60.11 | X-H torsion
[ 7974 7965 7964 7962 ] final   -4.53 input  175.53 | X-H torsion
[ 8008 7997 7996 7995 ] final   74.17 input   59.86 | X-H torsion
[ 10167 10162 10161 10158 ] final  100.90 input  -65.29 | X-H torsion
[ 10718 10713 10712 10709 ] final -141.49 input   66.30 | X-H torsion
[ 10763 10752 10751 10750 ] final  -14.90 input  -60.55 | X-H torsion
[ 11005 11000 10999 10996 ] final  -38.80 input  -57.11 | X-H torsion

> <Gold.Protein.ActiveResidues>
 VAL166  LYS551  ARG553  GLY616  TRP617  ASP618  TYR619  PRO620  LYS621  CYS622 
 ASP623  PHE694  ASN695  SER759  ASP760  ASP761  ALA762  ILE779  LEU786  VAL792 
 PHE793  MET794  SER795  GLU796  ALA797  LYS798  CYS799  TRP800  GLU811  SER814 

> <Gold.Protein.RotatedAtoms>
  152.5115  134.3824  159.9355 H   0  0  0  0  0  0  0  0  0  0  0  0  # atno 6907 bound_to 6896
  151.3782  133.3824  159.2715 H   0  0  0  0  0  0  0  0  0  0  0  0  # atno 6908 bound_to 6896
  150.9525  134.8943  159.7739 H   0  0  0  0  0  0  0  0  0  0  0  0  # atno 6909 bound_to 6896
  146.2370  140.1885  142.8332 H   0  0  0  0  0  0  0  0  0  0  0  0  # atno 7974 bound_to 7965
  155.7945  140.3478  155.5368 H   0  0  0  0  0  0  0  0  0  0  0  0  # atno 8008 bound_to 7997
  155.8600  140.0970  157.1640 H   0  0  0  0  0  0  0  0  0  0  0  0  # atno 8009 bound_to 7997
  154.4011  140.1360  156.3937 H   0  0  0  0  0  0  0  0  0  0  0  0  # atno 8010 bound_to 7997
  139.7486  144.6990  151.0466 H   0  0  0  0  0  0  0  0  0  0  0  0  # atno 10167 bound_to 10162
  156.3347  130.7605  151.1730 H   0  0  0  0  0  0  0  0  0  0  0  0  # atno 10718 bound_to 10713
  153.5352  135.7014  153.5664 H   0  0  0  0  0  0  0  0  0  0  0  0  # atno 10763 bound_to 10752
  153.3654  135.3959  155.1749 H   0  0  0  0  0  0  0  0  0  0  0  0  # atno 10764 bound_to 10752
  154.8680  135.3799  154.4852 H   0  0  0  0  0  0  0  0  0  0  0  0  # atno 10765 bound_to 10752
  141.0054  133.6934  156.2101 H   0  0  0  0  0  0  0  0  0  0  0  0  # atno 11005 bound_to 11000
  144.9877  140.8518  143.5359 LP  0  0  0  0  0  0  0  0  0  0  0  0  # atno 17320 bound_to 7965
  145.1887  139.2312  143.5254 LP  0  0  0  0  0  0  0  0  0  0  0  0  # atno 17321 bound_to 7965
  140.7795  143.4836  150.9985 LP  0  0  0  0  0  0  0  0  0  0  0  0  # atno 17342 bound_to 10162
  139.8524  143.7421  152.3177 LP  0  0  0  0  0  0  0  0  0  0  0  0  # atno 17343 bound_to 10162
  157.7436  131.0471  150.4929 LP  0  0  0  0  0  0  0  0  0  0  0  0  # atno 17370 bound_to 10713
  156.5100  130.4137  149.6306 LP  0  0  0  0  0  0  0  0  0  0  0  0  # atno 17371 bound_to 10713
  140.6821  134.4756  157.5589 LP  0  0  0  0  0  0  0  0  0  0  0  0  # atno 17394 bound_to 11000
  139.9061  134.8447  156.1702 LP  0  0  0  0  0  0  0  0  0  0  0  0  # atno 17395 bound_to 11000

$$$$
