AV-unprocessed.smi:639|AV-procd|sdf|3144|dock9
  -GOLD-   22720 0 73D 1   1.00000     0.00000
 Structure written by MMmdl.
 24 25  0  0  0  0  0  0  0  0  1 V2000
  143.5375  132.5316  148.7026 C   0  0  0  0  0  0  0  0  0  0  0  0
  144.3960  133.1926  149.6620 N   0  0  0  0  0  0  0  0  0  0  0  0
  144.1791  134.3726  150.3385 C   0  0  0  0  0  0  0  0  0  0  0  0
  145.2651  134.6010  151.1391 C   0  0  0  0  0  0  0  0  0  0  0  0
  145.5187  135.7641  152.0781 C   0  0  1  0  0  0  0  0  0  0  0  0
  145.6957  135.3086  153.5385 C   0  0  0  0  0  0  0  0  0  0  0  0
  146.6391  136.5918  151.6557 N   0  0  0  0  0  0  0  0  0  0  0  0
  146.2658  137.8259  151.2903 C   0  0  0  0  0  0  0  0  0  0  0  0
  147.0084  138.7123  150.8750 O   0  0  0  0  0  0  0  0  0  0  0  0
  144.9444  137.9236  151.4649 N   0  0  0  0  0  0  0  0  0  0  0  0
  144.4089  136.7983  151.9353 C   0  0  0  0  0  0  0  0  0  0  0  0
  143.2258  136.6060  152.2121 O   0  0  0  0  0  0  0  0  0  0  0  0
  146.1014  133.4766  150.8709 C   0  0  0  0  0  0  0  0  0  0  0  0
  145.5794  132.6379  149.9915 N   0  0  0  0  0  0  0  0  0  0  0  0
  142.8310  133.2469  148.2805 H   0  0  0  0  0  0  0  0  0  0  0  0
  142.9834  131.7328  149.1963 H   0  0  0  0  0  0  0  0  0  0  0  0
  144.1345  132.1077  147.8943 H   0  0  0  0  0  0  0  0  0  0  0  0
  143.2785  134.9514  150.1952 H   0  0  0  0  0  0  0  0  0  0  0  0
  144.8215  134.7637  153.8966 H   0  0  0  0  0  0  0  0  0  0  0  0
  145.8501  136.1557  154.2084 H   0  0  0  0  0  0  0  0  0  0  0  0
  146.5582  134.6491  153.6395 H   0  0  0  0  0  0  0  0  0  0  0  0
  147.5896  136.2525  151.6267 H   0  0  0  0  0  0  0  0  0  0  0  0
  144.4132  138.7604  151.2728 H   0  0  0  0  0  0  0  0  0  0  0  0
  147.0706  133.2462  151.2883 H   0  0  0  0  0  0  0  0  0  0  0  0
  1  2  1  0  0  0  0
  1 15  1  0  0  0  0
  1 16  1  0  0  0  0
  1 17  1  0  0  0  0
  2 14  1  0  0  0  0
  2  3  1  0  0  0  0
  3  4  2  0  0  0  0
  3 18  1  0  0  0  0
  4  5  1  0  0  0  0
  4 13  1  0  0  0  0
  5 11  1  0  0  0  0
  5  6  1  0  0  0  0
  5  7  1  0  0  0  0
  6 19  1  0  0  0  0
  6 20  1  0  0  0  0
  6 21  1  0  0  0  0
  7  8  1  0  0  0  0
  7 22  1  0  0  0  0
  8  9  2  0  0  0  0
  8 10  1  0  0  0  0
 10 11  1  0  0  0  0
 10 23  1  0  0  0  0
 11 12  2  0  0  0  0
 13 14  2  0  0  0  0
 13 24  1  0  0  0  0
M  END
> <s_m_source_file>
AV-unprocessed.smi

> <i_m_source_file_index>
639

> <i_lp_mmshare_version>
43012

> <i_f3d_flags>
0

> <s_epik_input>
W0NIM11uMVtjSF1jKFtjSF1uMSlbQ0BAXTIoW0NIM10pW05IXUMoPU8pW05IXUMyPU8=

> <s_epik_cmdline>
J2VwaWtfcHl0aG9uJywgJy1waCcsICc3LjAnLCAnLXRuJywgJzgnLCAnLW1hJywgJzIwMCcsICctbWV0YWxfYmluZGluZycsICctaW1hZScsICc8aW5maWxlLm1hZT4nLCAnLW9tYWUnLCAnPG91dGZpbGUubWFlPic=

> <r_lp_tautomer_probability>
1

> <r_epik_Ionization_Penalty>
0.0282779

> <r_epik_Ionization_Penalty_Charging>
0

> <r_epik_Ionization_Penalty_Neutral>
0.0282779

> <r_epik_State_Penalty>
0.022996

> <r_epik_Charging_Adjusted_Penalty>
0.022996

> <i_epik_Tot_Q>
0

> <i_epik_Tot_abs_Q>
0

> <r_epik_Metal_State_Penalty>
0.428533

> <b_epik_Metal_Only>
0

> <s_lp_Force_Field>
OPLS_2005

> <r_lp_Energy>
13.4697

> <b_lp_Chiralities_Consistent>
1

> <s_lp_Variant>
AV-unprocessed.smi:639-1

> <Gold.Version>
5.8.1

> <Gold.Id.Protein>
6NUR|6NUR_protein|mol2

> <Gold.PLP.Fitness>
33.7423

> <Gold.PLP.PLP>
-23.0141

> <Gold.PLP.part.hbond>
-2.9522

> <Gold.PLP.part.metal>
0.0000

> <Gold.PLP.part.buried>
-1.2513

> <Gold.PLP.part.nonpolar>
-20.5560

> <Gold.PLP.part.repulsive>
1.4026

> <Gold.PLP.ligand.clash>
0.0000

> <Gold.PLP.ligand.torsion>
0.0634

> <Gold.PLP.Chemscore.Hbond>
2.5761

> <Gold.PLP.Chemscore.CHOScore>
1.0000

> <Gold.PLP.Chemscore.Metal>
0.0000

> <Gold.Chemscore.Hbonds>
donor molecule, donor type, donor heavy atom, donor atom, acceptor molecule, acceptor atom, score
      L1  H     7    22       P1  7948  0.55
      L1  H    10    23       P1 10175  0.48
      P1  H  7954  7966       L1     9  0.90
      L1  C     3    18       P1 10186  1.00

> <Gold.PLP.Chemscore.Internal.Correction>
0.1268

> <Gold.Rescore>
     Score         DG    S(hbond)    S(metal)    S(lipo)     H(rot)  DE(clash)    DE(int)     intcor
     13.07     -13.26       1.95        0.00      32.67       1.00       0.00       0.20       ----

> <Gold.Chemscore.Fitness>
13.0671

> <Gold.Chemscore.DG>
-13.2626

> <Gold.Chemscore.ZeroCoef>
-5.4800

> <Gold.Chemscore.Hbond>
1.9522

> <Gold.Chemscore.Metal>
0.0000

> <Gold.Chemscore.Lipo>
32.6690

> <Gold.Chemscore.Internal_Hbond>
0.0000

> <Gold.Chemscore.DEClash>
0.0000

> <Gold.Chemscore.DEInternal>
0.1955

> <Gold.Chemscore.Rot>
1.0000

> <Gold.Chemscore.Internal.Correction>
   9.000000E+99

> <Gold.Chemscore.Hbonds>
donor molecule, donor type, donor heavy atom, donor atom, acceptor molecule, acceptor atom, score
      L1  H     7    22       P1  7948  0.54
      L1  H    10    23       P1 10175  0.41
      P1  H  7954  7966       L1     9  0.43

> <Gold.Chemscore.Hbond.Weighted>
-6.5203

> <Gold.Chemscore.Metal.Weighted>
-0.0000

> <Gold.Chemscore.Lipo.Weighted>
-3.8223

> <Gold.Chemscore.Internal_Hbond.Weighted>
0.0000

> <Gold.Chemscore.DEClash.Weighted>
0.0000

> <Gold.Chemscore.DEInternal.Weighted>
0.1955

> <Gold.Chemscore.Rot.Weighted>
2.5600

> <Gold.Chemscore.Internal.Correction.Weighted>
   9.000000E+99

> <Gold.Protein.RotatedTorsions>
[ 6907 6896 6895 6894 ] final -161.45 input  -60.11 | X-H torsion
[ 7974 7965 7964 7962 ] final -157.32 input  175.53 | X-H torsion
[ 8008 7997 7996 7995 ] final   45.32 input   59.86 | X-H torsion
[ 10167 10162 10161 10158 ] final -134.77 input  -65.29 | X-H torsion
[ 10718 10713 10712 10709 ] final -177.34 input   66.30 | X-H torsion
[ 10763 10752 10751 10750 ] final   46.71 input  -60.55 | X-H torsion
[ 11005 11000 10999 10996 ] final   -9.42 input  -57.11 | X-H torsion

> <Gold.Protein.ActiveResidues>
 VAL166  LYS551  ARG553  GLY616  TRP617  ASP618  TYR619  PRO620  LYS621  CYS622 
 ASP623  PHE694  ASN695  SER759  ASP760  ASP761  ALA762  ILE779  LEU786  VAL792 
 PHE793  MET794  SER795  GLU796  ALA797  LYS798  CYS799  TRP800  GLU811  SER814 

> <Gold.Protein.RotatedAtoms>
  151.3648  133.3876  159.2693 H   0  0  0  0  0  0  0  0  0  0  0  0  # atno 6907 bound_to 6896
  150.9697  134.9073  159.7791 H   0  0  0  0  0  0  0  0  0  0  0  0  # atno 6908 bound_to 6896
  152.5180  134.3610  159.9337 H   0  0  0  0  0  0  0  0  0  0  0  0  # atno 6909 bound_to 6896
  144.7553  140.3986  143.6017 H   0  0  0  0  0  0  0  0  0  0  0  0  # atno 7974 bound_to 7965
  155.3339  140.3404  155.4239 H   0  0  0  0  0  0  0  0  0  0  0  0  # atno 8008 bound_to 7997
  156.1848  140.1676  156.8243 H   0  0  0  0  0  0  0  0  0  0  0  0  # atno 8009 bound_to 7997
  154.5373  140.0732  156.8433 H   0  0  0  0  0  0  0  0  0  0  0  0  # atno 8010 bound_to 7997
  139.8847  143.6796  152.2622 H   0  0  0  0  0  0  0  0  0  0  0  0  # atno 10167 bound_to 10162
  156.8280  130.9643  151.3108 H   0  0  0  0  0  0  0  0  0  0  0  0  # atno 10718 bound_to 10713
  152.9807  135.5999  154.3644 H   0  0  0  0  0  0  0  0  0  0  0  0  # atno 10763 bound_to 10752
  154.3323  135.2768  155.2467 H   0  0  0  0  0  0  0  0  0  0  0  0  # atno 10764 bound_to 10752
  154.4585  135.5972  153.6295 H   0  0  0  0  0  0  0  0  0  0  0  0  # atno 10765 bound_to 10752
  140.7340  133.8726  155.8915 H   0  0  0  0  0  0  0  0  0  0  0  0  # atno 11005 bound_to 11000
  145.6799  139.1616  143.2706 LP  0  0  0  0  0  0  0  0  0  0  0  0  # atno 17320 bound_to 7965
  146.1556  140.6862  142.9301 LP  0  0  0  0  0  0  0  0  0  0  0  0  # atno 17321 bound_to 7965
  139.7164  144.7611  151.1027 LP  0  0  0  0  0  0  0  0  0  0  0  0  # atno 17342 bound_to 10162
  140.7738  143.5264  150.9475 LP  0  0  0  0  0  0  0  0  0  0  0  0  # atno 17343 bound_to 10162
  157.6422  130.8814  149.9469 LP  0  0  0  0  0  0  0  0  0  0  0  0  # atno 17370 bound_to 10713
  156.0950  130.3660  150.0323 LP  0  0  0  0  0  0  0  0  0  0  0  0  # atno 17371 bound_to 10713
  140.9896  134.1296  157.4420 LP  0  0  0  0  0  0  0  0  0  0  0  0  # atno 17394 bound_to 11000
  139.8820  135.0036  156.6198 LP  0  0  0  0  0  0  0  0  0  0  0  0  # atno 17395 bound_to 11000

$$$$
