AV-unprocessed.smi:1748|AV-procd|sdf|7036|dock7
  -GOLD-   22720 8253D 1   1.00000     0.00000
 Structure written by MMmdl.
 40 41  0  0  0  0  0  0  0  0  2 V2000
  147.5106  135.6270  154.9118 C   0  0  0  0  0  0  0  0  0  0  0  0
  147.8658  136.8939  154.2371 N   0  3  1  0  0  0  0  0  0  0  0  0
  146.6869  137.7689  154.0185 C   0  0  0  0  0  0  0  0  0  0  0  0
  147.0694  139.0149  153.2025 C   0  0  0  0  0  0  0  0  0  0  0  0
  148.2141  139.7854  153.8751 C   0  0  0  0  0  0  0  0  0  0  0  0
  149.4103  138.8510  154.1194 C   0  0  1  0  0  0  0  0  0  0  0  0
  150.4703  139.5732  154.8161 N   0  0  0  0  0  0  0  0  0  0  0  0
  150.4085  139.9980  156.0861 C   0  0  0  0  0  0  0  0  0  0  0  0
  149.4236  139.8280  156.8042 O   0  0  0  0  0  0  0  0  0  0  0  0
  151.5406  140.6360  156.4352 N   0  0  0  0  0  0  0  0  0  0  0  0
  151.8968  141.2044  157.6700 C   0  0  0  0  0  0  0  0  0  0  0  0
  151.6392  142.4867  158.0387 C   0  0  0  0  0  0  0  0  0  0  0  0
  152.0247  143.0073  159.3401 C   0  0  0  0  0  0  0  0  0  0  0  0
  151.6809  144.4254  159.7694 C   0  0  0  0  0  0  0  0  0  0  0  0
  152.1795  144.6957  160.9766 F   0  0  0  0  0  0  0  0  0  0  0  0
  152.1956  145.2978  158.9040 F   0  0  0  0  0  0  0  0  0  0  0  0
  150.3613  144.6104  159.8112 F   0  0  0  0  0  0  0  0  0  0  0  0
  152.6274  142.1433  160.1775 C   0  0  0  0  0  0  0  0  0  0  0  0
  152.8974  140.8244  159.8058 N   0  0  0  0  0  0  0  0  0  0  0  0
  152.5709  140.2908  158.6074 C   0  0  0  0  0  0  0  0  0  0  0  0
  152.8378  139.1159  158.3569 O   0  0  0  0  0  0  0  0  0  0  0  0
  148.9692  137.6097  154.9243 C   0  0  0  0  0  0  0  0  0  0  0  0
  153.3613  140.2411  160.4873 H   0  0  0  0  0  0  0  0  0  0  0  0
  147.1248  135.8124  155.9150 H   0  0  0  0  0  0  0  0  0  0  0  0
  148.3825  134.9773  154.9949 H   0  0  0  0  0  0  0  0  0  0  0  0
  146.7493  135.0894  154.3457 H   0  0  0  0  0  0  0  0  0  0  0  0
  145.9111  137.2125  153.4910 H   0  0  0  0  0  0  0  0  0  0  0  0
  146.2668  138.0642  154.9814 H   0  0  0  0  0  0  0  0  0  0  0  0
  147.3704  138.7163  152.1973 H   0  0  0  0  0  0  0  0  0  0  0  0
  146.2018  139.6646  153.0850 H   0  0  0  0  0  0  0  0  0  0  0  0
  148.5125  140.6285  153.2504 H   0  0  0  0  0  0  0  0  0  0  0  0
  147.8662  140.2040  154.8208 H   0  0  0  0  0  0  0  0  0  0  0  0
  149.7899  138.5260  153.1484 H   0  0  0  0  0  0  0  0  0  0  0  0
  151.3154  139.7574  154.2949 H   0  0  0  0  0  0  0  0  0  0  0  0
  152.2297  140.7573  155.7071 H   0  0  0  0  0  0  0  0  0  0  0  0
  151.1213  143.1606  157.3764 H   0  0  0  0  0  0  0  0  0  0  0  0
  152.9400  142.3884  161.1819 H   0  0  0  0  0  0  0  0  0  0  0  0
  148.6472  137.8995  155.9262 H   0  0  0  0  0  0  0  0  0  0  0  0
  149.8123  136.9282  155.0473 H   0  0  0  0  0  0  0  0  0  0  0  0
  148.2128  136.6432  153.3221 H   0  0  0  0  0  0  0  0  0  0  0  0
  1  2  1  0  0  0  0
  1 24  1  0  0  0  0
  1 25  1  0  0  0  0
  1 26  1  0  0  0  0
  2 22  1  0  0  0  0
  2  3  1  0  0  0  0
  2 40  1  0  0  0  0
  3  4  1  0  0  0  0
  3 27  1  0  0  0  0
  3 28  1  0  0  0  0
  4  5  1  0  0  0  0
  4 29  1  0  0  0  0
  4 30  1  0  0  0  0
  5  6  1  0  0  0  0
  5 31  1  0  0  0  0
  5 32  1  0  0  0  0
  6  7  1  0  0  0  0
  6 22  1  0  0  0  0
  6 33  1  0  0  0  0
  7  8  1  0  0  0  0
  7 34  1  0  0  0  0
  8  9  2  0  0  0  0
  8 10  1  0  0  0  0
 10 11  1  0  0  0  0
 10 35  1  0  0  0  0
 11 20  1  0  0  0  0
 11 12  2  0  0  0  0
 12 13  1  0  0  0  0
 12 36  1  0  0  0  0
 13 14  1  0  0  0  0
 13 18  2  0  0  0  0
 14 15  1  0  0  0  0
 14 16  1  0  0  0  0
 14 17  1  0  0  0  0
 18 19  1  0  0  0  0
 18 37  1  0  0  0  0
 19 23  1  0  0  0  0
 19 20  1  0  0  0  0
 20 21  2  0  0  0  0
 22 38  1  0  0  0  0
 22 39  1  0  0  0  0
M  CHG  1   2   1
M  END
> <s_m_source_file>
AV-unprocessed.smi

> <i_m_source_file_index>
1748

> <i_lp_mmshare_version>
43012

> <i_f3d_flags>
0

> <s_epik_input>
W0NIM11OMVtDSDJdW0NIMl1bQ0gyXVtDQEhdKFtDSDJdMSlbTkhdQyg9TylbTkhdYzJbY0hdYyhDKEYpKEYpRilbY0hdW25IXWMyPU8=

> <s_epik_cmdline>
J2VwaWtfcHl0aG9uJywgJy1waCcsICc3LjAnLCAnLXRuJywgJzgnLCAnLW1hJywgJzIwMCcsICctbWV0YWxfYmluZGluZycsICctaW1hZScsICc8aW5maWxlLm1hZT4nLCAnLW9tYWUnLCAnPG91dGZpbGUubWFlPic=

> <r_lp_tautomer_probability>
1

> <r_epik_Ionization_Penalty>
0.00746315

> <r_epik_Ionization_Penalty_Charging>
0.00744398

> <r_epik_Ionization_Penalty_Neutral>
1.91704e-05

> <r_epik_State_Penalty>
-0

> <r_epik_Charging_Adjusted_Penalty>
0.00744398

> <i_epik_Tot_Q>
1

> <i_epik_Tot_abs_Q>
1

> <r_epik_Metal_State_Penalty>
0.379332

> <b_epik_Metal_Only>
0

> <s_lp_Force_Field>
OPLS_2005

> <r_lp_Energy>
25.304

> <b_lp_Chiralities_Consistent>
1

> <s_lp_Variant>
AV-unprocessed.smi:1748-1

> <Gold.Version>
5.8.1

> <Gold.Id.Protein>
6NUR|6NUR_protein|mol2

> <Gold.PLP.Fitness>
40.7217

> <Gold.PLP.PLP>
-37.8243

> <Gold.PLP.part.hbond>
-1.0000

> <Gold.PLP.part.metal>
0.0000

> <Gold.PLP.part.buried>
-5.6388

> <Gold.PLP.part.nonpolar>
-31.3971

> <Gold.PLP.part.repulsive>
0.3609

> <Gold.PLP.ligand.clash>
1.3790

> <Gold.PLP.ligand.torsion>
0.8779

> <Gold.PLP.Chemscore.Hbond>
2.0000

> <Gold.PLP.Chemscore.CHOScore>
0.0000

> <Gold.PLP.Chemscore.Metal>
0.0000

> <Gold.Chemscore.Hbonds>
donor molecule, donor type, donor heavy atom, donor atom, acceptor molecule, acceptor atom, score
      L1  H     2    40       P1  7948  2.00

> <Gold.PLP.Chemscore.Internal.Correction>
0.0322

> <Gold.Rescore>
     Score         DG    S(hbond)    S(metal)    S(lipo)     H(rot)  DE(clash)    DE(int)     intcor
     12.94     -14.79       0.99        0.00      73.16       1.00       0.02       1.83       ----

> <Gold.Chemscore.Fitness>
12.9440

> <Gold.Chemscore.DG>
-14.7914

> <Gold.Chemscore.ZeroCoef>
-5.4800

> <Gold.Chemscore.Hbond>
0.9915

> <Gold.Chemscore.Metal>
0.0000

> <Gold.Chemscore.Lipo>
73.1615

> <Gold.Chemscore.Internal_Hbond>
0.0000

> <Gold.Chemscore.DEClash>
0.0205

> <Gold.Chemscore.DEInternal>
1.8268

> <Gold.Chemscore.Rot>
1.0000

> <Gold.Chemscore.Internal.Correction>
   9.000000E+99

> <Gold.Chemscore.Hbonds>
donor molecule, donor type, donor heavy atom, donor atom, acceptor molecule, acceptor atom, score
      L1  H     2    40       P1  7948  1.00

> <Gold.Chemscore.Hbond.Weighted>
-3.3115

> <Gold.Chemscore.Metal.Weighted>
-0.0000

> <Gold.Chemscore.Lipo.Weighted>
-8.5599

> <Gold.Chemscore.Internal_Hbond.Weighted>
0.0000

> <Gold.Chemscore.DEClash.Weighted>
0.0205

> <Gold.Chemscore.DEInternal.Weighted>
1.8268

> <Gold.Chemscore.Rot.Weighted>
2.5600

> <Gold.Chemscore.Internal.Correction.Weighted>
   9.000000E+99

> <Gold.Protein.RotatedTorsions>
[ 6907 6896 6895 6894 ] final -131.58 input  -60.11 | X-H torsion
[ 7974 7965 7964 7962 ] final -104.96 input  175.53 | X-H torsion
[ 8008 7997 7996 7995 ] final   78.56 input   59.86 | X-H torsion
[ 10167 10162 10161 10158 ] final   -7.32 input  -65.29 | X-H torsion
[ 10718 10713 10712 10709 ] final -133.04 input   66.30 | X-H torsion
[ 10763 10752 10751 10750 ] final   47.83 input  -60.55 | X-H torsion
[ 11005 11000 10999 10996 ] final  -86.00 input  -57.11 | X-H torsion

> <Gold.Protein.ActiveResidues>
 VAL166  LYS551  ARG553  GLY616  TRP617  ASP618  TYR619  PRO620  LYS621  CYS622 
 ASP623  PHE694  ASN695  SER759  ASP760  ASP761  ALA762  ILE779  LEU786  VAL792 
 PHE793  MET794  SER795  GLU796  ALA797  LYS798  CYS799  TRP800  GLU811  SER814 

> <Gold.Protein.RotatedAtoms>
  150.9525  133.6533  159.2769 H   0  0  0  0  0  0  0  0  0  0  0  0  # atno 6907 bound_to 6896
  151.3884  135.0950  159.9528 H   0  0  0  0  0  0  0  0  0  0  0  0  # atno 6908 bound_to 6896
  152.5116  133.9045  159.7512 H   0  0  0  0  0  0  0  0  0  0  0  0  # atno 6909 bound_to 6896
  145.2365  140.9190  143.3174 H   0  0  0  0  0  0  0  0  0  0  0  0  # atno 7974 bound_to 7965
  155.8574  140.3455  155.5733 H   0  0  0  0  0  0  0  0  0  0  0  0  # atno 8008 bound_to 7997
  155.7971  140.0880  157.1997 H   0  0  0  0  0  0  0  0  0  0  0  0  # atno 8009 bound_to 7997
  154.4010  140.1472  156.3218 H   0  0  0  0  0  0  0  0  0  0  0  0  # atno 8010 bound_to 7997
  140.7025  143.6094  150.8719 H   0  0  0  0  0  0  0  0  0  0  0  0  # atno 10167 bound_to 10162
  156.2407  130.7094  151.0954 H   0  0  0  0  0  0  0  0  0  0  0  0  # atno 10718 bound_to 10713
  152.9796  135.5964  154.3826 H   0  0  0  0  0  0  0  0  0  0  0  0  # atno 10763 bound_to 10752
  154.3490  135.2767  155.2384 H   0  0  0  0  0  0  0  0  0  0  0  0  # atno 10764 bound_to 10752
  154.4432  135.6008  153.6198 H   0  0  0  0  0  0  0  0  0  0  0  0  # atno 10765 bound_to 10752
  141.1635  133.7430  156.9097 H   0  0  0  0  0  0  0  0  0  0  0  0  # atno 11005 bound_to 11000
  144.9628  139.3962  143.6347 LP  0  0  0  0  0  0  0  0  0  0  0  0  # atno 17320 bound_to 7965
  146.3339  139.8689  142.8843 LP  0  0  0  0  0  0  0  0  0  0  0  0  # atno 17321 bound_to 7965
  139.9817  143.5944  152.2940 LP  0  0  0  0  0  0  0  0  0  0  0  0  # atno 17342 bound_to 10162
  139.6567  144.7662  151.2041 LP  0  0  0  0  0  0  0  0  0  0  0  0  # atno 17343 bound_to 10162
  157.7174  131.0702  150.6273 LP  0  0  0  0  0  0  0  0  0  0  0  0  # atno 17370 bound_to 10713
  156.6346  130.4441  149.5774 LP  0  0  0  0  0  0  0  0  0  0  0  0  # atno 17371 bound_to 10713
  140.1525  134.9220  157.2611 LP  0  0  0  0  0  0  0  0  0  0  0  0  # atno 17394 bound_to 11000
  140.2706  134.3465  155.7375 LP  0  0  0  0  0  0  0  0  0  0  0  0  # atno 17395 bound_to 11000

$$$$
