AV-unprocessed.smi:3183|AV-procd|sdf|12158|dock6
  -GOLD-   2272017593D 1   1.00000     0.00000
 Structure written by MMmdl.
 43 44  0  0  0  0  0  0  0  0  2 V2000
  152.2033  143.2501  161.5489 C   0  0  0  0  0  0  0  0  0  0  0  0
  152.3663  143.1751  160.0203 C   0  0  1  0  0  0  0  0  0  0  0  0
  151.9667  141.7717  159.5217 C   0  0  0  0  0  0  0  0  0  0  0  0
  152.1241  141.6302  157.9998 C   0  0  0  0  0  0  0  0  0  0  0  0
  151.3383  142.7089  157.2363 C   0  0  1  0  0  0  0  0  0  0  0  0
  149.8800  142.4747  157.3403 N   0  3  0  0  0  0  0  0  0  0  0  0
  149.3808  141.3062  156.5887 C   0  0  0  0  0  0  0  0  0  0  0  0
  149.5216  141.5238  155.0750 C   0  0  0  0  0  0  0  0  0  0  0  0
  148.5552  140.7327  154.2461 C   0  0  0  0  0  0  0  0  0  0  0  0
  147.4723  141.1305  153.5098 C   0  0  0  0  0  0  0  0  0  0  0  0
  146.9641  139.9246  152.9544 C   0  0  0  0  0  0  0  0  0  0  0  0
  147.6685  138.8665  153.3133 N   0  0  0  0  0  0  0  0  0  0  0  0
  148.6447  139.3574  154.1050 N   0  0  0  0  0  0  0  0  0  0  0  0
  149.6047  138.4285  154.6708 C   0  0  0  0  0  0  0  0  0  0  0  0
  151.7070  144.1153  157.7421 C   0  0  0  0  0  0  0  0  0  0  0  0
  151.5629  144.2726  159.2727 C   0  0  2  0  0  0  0  0  0  0  0  0
  151.9701  145.6977  159.6884 C   0  0  0  0  0  0  0  0  0  0  0  0
  151.1541  143.1899  161.8400 H   0  0  0  0  0  0  0  0  0  0  0  0
  152.6127  144.1744  161.9556 H   0  0  0  0  0  0  0  0  0  0  0  0
  152.7298  142.4309  162.0395 H   0  0  0  0  0  0  0  0  0  0  0  0
  153.4248  143.3167  159.7963 H   0  0  0  0  0  0  0  0  0  0  0  0
  152.5786  141.0156  160.0152 H   0  0  0  0  0  0  0  0  0  0  0  0
  150.9352  141.5588  159.8062 H   0  0  0  0  0  0  0  0  0  0  0  0
  153.1817  141.7106  157.7453 H   0  0  0  0  0  0  0  0  0  0  0  0
  151.8113  140.6352  157.6804 H   0  0  0  0  0  0  0  0  0  0  0  0
  151.6256  142.6470  156.1853 H   0  0  0  0  0  0  0  0  0  0  0  0
  149.6493  142.3491  158.3157 H   0  0  0  0  0  0  0  0  0  0  0  0
  149.9407  140.4210  156.8936 H   0  0  0  0  0  0  0  0  0  0  0  0
  148.3342  141.1378  156.8470 H   0  0  0  0  0  0  0  0  0  0  0  0
  149.3923  142.5842  154.8539 H   0  0  0  0  0  0  0  0  0  0  0  0
  150.5384  141.2699  154.7722 H   0  0  0  0  0  0  0  0  0  0  0  0
  147.0944  142.1342  153.3827 H   0  0  0  0  0  0  0  0  0  0  0  0
  146.1112  139.7875  152.3062 H   0  0  0  0  0  0  0  0  0  0  0  0
  150.3342  138.9493  155.2899 H   0  0  0  0  0  0  0  0  0  0  0  0
  150.1318  137.9114  153.8684 H   0  0  0  0  0  0  0  0  0  0  0  0
  149.0852  137.6928  155.2857 H   0  0  0  0  0  0  0  0  0  0  0  0
  152.7392  144.3290  157.4600 H   0  0  0  0  0  0  0  0  0  0  0  0
  151.0972  144.8605  157.2290 H   0  0  0  0  0  0  0  0  0  0  0  0
  150.5084  144.1507  159.5245 H   0  0  0  0  0  0  0  0  0  0  0  0
  153.0377  145.8647  159.5417 H   0  0  0  0  0  0  0  0  0  0  0  0
  151.7403  145.8961  160.7350 H   0  0  0  0  0  0  0  0  0  0  0  0
  151.4356  146.4451  159.1016 H   0  0  0  0  0  0  0  0  0  0  0  0
  149.4031  143.2990  157.0038 H   0  0  0  0  0  0  0  0  0  0  0  0
  1  2  1  0  0  0  0
  1 18  1  0  0  0  0
  1 19  1  0  0  0  0
  1 20  1  0  0  0  0
  2 16  1  0  0  0  0
  2  3  1  0  0  0  0
  2 21  1  0  0  0  0
  3  4  1  0  0  0  0
  3 22  1  0  0  0  0
  3 23  1  0  0  0  0
  4  5  1  0  0  0  0
  4 24  1  0  0  0  0
  4 25  1  0  0  0  0
  5  6  1  0  0  0  0
  5 15  1  0  0  0  0
  5 26  1  0  0  0  0
  6  7  1  0  0  0  0
  6 27  1  0  0  0  0
  6 43  1  0  0  0  0
  7  8  1  0  0  0  0
  7 28  1  0  0  0  0
  7 29  1  0  0  0  0
  8  9  1  0  0  0  0
  8 30  1  0  0  0  0
  8 31  1  0  0  0  0
  9 13  1  0  0  0  0
  9 10  2  0  0  0  0
 10 11  1  0  0  0  0
 10 32  1  0  0  0  0
 11 12  2  0  0  0  0
 11 33  1  0  0  0  0
 12 13  1  0  0  0  0
 13 14  1  0  0  0  0
 14 34  1  0  0  0  0
 14 35  1  0  0  0  0
 14 36  1  0  0  0  0
 15 16  1  0  0  0  0
 15 37  1  0  0  0  0
 15 38  1  0  0  0  0
 16 17  1  0  0  0  0
 16 39  1  0  0  0  0
 17 40  1  0  0  0  0
 17 41  1  0  0  0  0
 17 42  1  0  0  0  0
M  CHG  1   6   1
M  END
> <s_m_source_file>
AV-unprocessed.smi

> <i_m_source_file_index>
3183

> <i_lp_mmshare_version>
43012

> <i_f3d_flags>
0

> <s_epik_input>
W0NIM11bQ0BASF0xW0NIMl1bQ0gyXVtDQEhdKFtDSDJdW0NASF0xW0NIM10pW05IXVtDSDJdW0NIMl1jMltjSF1bY0hdbm4yW0NIM10=

> <s_epik_cmdline>
J2VwaWtfcHl0aG9uJywgJy1waCcsICc3LjAnLCAnLXRuJywgJzgnLCAnLW1hJywgJzIwMCcsICctbWV0YWxfYmluZGluZycsICctaW1hZScsICc8aW5maWxlLm1hZT4nLCAnLW9tYWUnLCAnPG91dGZpbGUubWFlPic=

> <r_lp_tautomer_probability>
1

> <r_epik_Ionization_Penalty>
0.000327718

> <r_epik_Ionization_Penalty_Charging>
0.000294043

> <r_epik_Ionization_Penalty_Neutral>
3.36755e-05

> <r_epik_State_Penalty>
-0

> <r_epik_Charging_Adjusted_Penalty>
0.000294043

> <i_epik_Tot_Q>
1

> <i_epik_Tot_abs_Q>
1

> <r_epik_Metal_State_Penalty>
-0

> <b_epik_Metal_Only>
0

> <s_lp_Force_Field>
OPLS_2005

> <r_lp_Energy>
17.888

> <b_lp_Chiralities_Consistent>
1

> <s_lp_Variant>
AV-unprocessed.smi:3183-6

> <Gold.Version>
5.8.1

> <Gold.Id.Protein>
6NUR|6NUR_protein|mol2

> <Gold.PLP.Fitness>
50.4291

> <Gold.PLP.PLP>
-42.0868

> <Gold.PLP.part.hbond>
-1.0000

> <Gold.PLP.part.metal>
0.0000

> <Gold.PLP.part.buried>
-3.9990

> <Gold.PLP.part.nonpolar>
-37.8557

> <Gold.PLP.part.repulsive>
0.3526

> <Gold.PLP.ligand.clash>
0.0000

> <Gold.PLP.ligand.torsion>
0.3342

> <Gold.PLP.Chemscore.Hbond>
2.0000

> <Gold.PLP.Chemscore.CHOScore>
1.0000

> <Gold.PLP.Chemscore.Metal>
0.0000

> <Gold.Chemscore.Hbonds>
donor molecule, donor type, donor heavy atom, donor atom, acceptor molecule, acceptor atom, score
      L1  H     6    43       P1  8028  2.00
      L1  C    11    33       P1 10175  1.00

> <Gold.PLP.Chemscore.Internal.Correction>
0.0107

> <Gold.Rescore>
     Score         DG    S(hbond)    S(metal)    S(lipo)     H(rot)  DE(clash)    DE(int)     intcor
     19.54     -20.00       0.97        0.00     126.43       1.38       0.13       0.34       ----

> <Gold.Chemscore.Fitness>
19.5363

> <Gold.Chemscore.DG>
-20.0004

> <Gold.Chemscore.ZeroCoef>
-5.4800

> <Gold.Chemscore.Hbond>
0.9739

> <Gold.Chemscore.Metal>
0.0000

> <Gold.Chemscore.Lipo>
126.4303

> <Gold.Chemscore.Internal_Hbond>
0.0000

> <Gold.Chemscore.DEClash>
0.1265

> <Gold.Chemscore.DEInternal>
0.3377

> <Gold.Chemscore.Rot>
1.3768

> <Gold.Chemscore.Internal.Correction>
   9.000000E+99

> <Gold.Chemscore.Hbonds>
donor molecule, donor type, donor heavy atom, donor atom, acceptor molecule, acceptor atom, score
      L1  H     6    43       P1  8028  0.89

> <Gold.Chemscore.Hbond.Weighted>
-3.2528

> <Gold.Chemscore.Metal.Weighted>
-0.0000

> <Gold.Chemscore.Lipo.Weighted>
-14.7923

> <Gold.Chemscore.Internal_Hbond.Weighted>
0.0000

> <Gold.Chemscore.DEClash.Weighted>
0.1265

> <Gold.Chemscore.DEInternal.Weighted>
0.3377

> <Gold.Chemscore.Rot.Weighted>
3.5247

> <Gold.Chemscore.Internal.Correction.Weighted>
   9.000000E+99

> <Gold.Protein.RotatedTorsions>
[ 6907 6896 6895 6894 ] final  164.26 input  -60.11 | X-H torsion
[ 7974 7965 7964 7962 ] final -116.53 input  175.53 | X-H torsion
[ 8008 7997 7996 7995 ] final  -92.40 input   59.86 | X-H torsion
[ 10167 10162 10161 10158 ] final -126.17 input  -65.29 | X-H torsion
[ 10718 10713 10712 10709 ] final  111.85 input   66.30 | X-H torsion
[ 10763 10752 10751 10750 ] final   70.95 input  -60.55 | X-H torsion
[ 11005 11000 10999 10996 ] final  -58.90 input  -57.11 | X-H torsion

> <Gold.Protein.ActiveResidues>
 VAL166  LYS551  ARG553  GLY616  TRP617  ASP618  TYR619  PRO620  LYS621  CYS622 
 ASP623  PHE694  ASN695  SER759  ASP760  ASP761  ALA762  ILE779  LEU786  VAL792 
 PHE793  MET794  SER795  GLU796  ALA797  LYS798  CYS799  TRP800  GLU811  SER814 

> <Gold.Protein.RotatedAtoms>
  151.9125  133.3565  159.3868 H   0  0  0  0  0  0  0  0  0  0  0  0  # atno 6907 bound_to 6896
  150.7055  134.4717  159.5438 H   0  0  0  0  0  0  0  0  0  0  0  0  # atno 6908 bound_to 6896
  152.2326  134.8307  160.0522 H   0  0  0  0  0  0  0  0  0  0  0  0  # atno 6909 bound_to 6896
  145.0957  140.8519  143.3956 H   0  0  0  0  0  0  0  0  0  0  0  0  # atno 7974 bound_to 7965
  154.7227  140.0509  157.0654 H   0  0  0  0  0  0  0  0  0  0  0  0  # atno 8008 bound_to 7997
  155.0406  140.3168  155.4707 H   0  0  0  0  0  0  0  0  0  0  0  0  # atno 8009 bound_to 7997
  156.2821  140.2133  156.5530 H   0  0  0  0  0  0  0  0  0  0  0  0  # atno 8010 bound_to 7997
  139.9743  143.5812  152.2401 H   0  0  0  0  0  0  0  0  0  0  0  0  # atno 10167 bound_to 10162
  157.6423  131.0958  150.6810 H   0  0  0  0  0  0  0  0  0  0  0  0  # atno 10718 bound_to 10713
  153.0371  135.5155  154.7520 H   0  0  0  0  0  0  0  0  0  0  0  0  # atno 10763 bound_to 10752
  154.6487  135.2922  155.0016 H   0  0  0  0  0  0  0  0  0  0  0  0  # atno 10764 bound_to 10752
  154.0907  135.6650  153.4904 H   0  0  0  0  0  0  0  0  0  0  0  0  # atno 10765 bound_to 10752
  141.1226  133.6614  156.4990 H   0  0  0  0  0  0  0  0  0  0  0  0  # atno 11005 bound_to 11000
  145.1014  139.2820  143.5684 LP  0  0  0  0  0  0  0  0  0  0  0  0  # atno 17320 bound_to 7965
  146.3531  140.0582  142.8631 LP  0  0  0  0  0  0  0  0  0  0  0  0  # atno 17321 bound_to 7965
  139.6458  144.7658  151.2247 LP  0  0  0  0  0  0  0  0  0  0  0  0  # atno 17342 bound_to 10162
  140.7511  143.6242  150.8484 LP  0  0  0  0  0  0  0  0  0  0  0  0  # atno 17343 bound_to 10162
  156.7132  130.4658  149.5542 LP  0  0  0  0  0  0  0  0  0  0  0  0  # atno 17370 bound_to 10713
  156.1716  130.6440  151.0844 LP  0  0  0  0  0  0  0  0  0  0  0  0  # atno 17371 bound_to 10713
  140.4461  134.6971  157.5016 LP  0  0  0  0  0  0  0  0  0  0  0  0  # atno 17394 bound_to 11000
  140.0196  134.6566  155.9258 LP  0  0  0  0  0  0  0  0  0  0  0  0  # atno 17395 bound_to 11000

$$$$
