AV-unprocessed.smi:1226|AV-procd|sdf|5145|dock1
  -GOLD-   22720 4213D 1   1.00000     0.00000
 Structure written by MMmdl.
 37 38  0  0  0  0  0  0  0  0  1 V2000
  146.7567  131.3731  152.6452 C   0  0  0  0  0  0  0  0  0  0  0  0
  145.8521  132.2510  151.8505 C   0  0  0  0  0  0  0  0  0  0  0  0
  146.0175  133.5712  151.7359 N   0  0  0  0  0  0  0  0  0  0  0  0
  145.0435  134.1678  150.9290 C   0  0  0  0  0  0  0  0  0  0  0  0
  145.0775  135.6454  150.6817 C   0  0  0  0  0  0  0  0  0  0  0  0
  145.0165  136.4533  151.9887 C   0  0  0  0  0  0  0  0  0  0  0  0
  146.3442  136.8631  152.4312 N   0  0  0  0  0  0  0  0  0  0  0  0
  146.5857  137.7726  153.3852 C   0  0  0  0  0  0  0  0  0  0  0  0
  145.7058  138.3710  154.0046 O   0  0  0  0  0  0  0  0  0  0  0  0
  147.8993  137.9490  153.5841 N   0  0  0  0  0  0  0  0  0  0  0  0
  148.4815  138.8521  154.5702 C   0  0  0  0  0  0  0  0  0  0  0  0
  150.0006  138.9897  154.3785 C   0  0  1  0  0  0  0  0  0  0  0  0
  150.6630  139.9179  155.3948 C   0  0  0  0  0  0  0  0  0  0  0  0
  152.0906  139.4224  155.3736 C   0  0  0  0  0  0  0  0  0  0  0  0
  151.8959  137.9149  155.2379 C   0  0  0  0  0  0  0  0  0  0  0  0
  150.6578  137.7367  154.5545 O   0  0  0  0  0  0  0  0  0  0  0  0
  144.1290  133.2723  150.4333 C   0  0  0  0  0  0  0  0  0  0  0  0
  144.4604  131.6455  150.9608 S   0  0  0  0  0  0  0  0  0  0  0  0
  147.3431  131.9638  153.3497 H   0  0  0  0  0  0  0  0  0  0  0  0
  147.4380  130.8431  151.9795 H   0  0  0  0  0  0  0  0  0  0  0  0
  146.1729  130.6421  153.2044 H   0  0  0  0  0  0  0  0  0  0  0  0
  145.9836  135.9043  150.1324 H   0  0  0  0  0  0  0  0  0  0  0  0
  144.2461  135.9322  150.0364 H   0  0  0  0  0  0  0  0  0  0  0  0
  144.4169  137.3523  151.8431 H   0  0  0  0  0  0  0  0  0  0  0  0
  144.5233  135.8752  152.7720 H   0  0  0  0  0  0  0  0  0  0  0  0
  147.1324  136.4229  151.9795 H   0  0  0  0  0  0  0  0  0  0  0  0
  148.5430  137.4093  153.0246 H   0  0  0  0  0  0  0  0  0  0  0  0
  148.0086  139.8262  154.4438 H   0  0  0  0  0  0  0  0  0  0  0  0
  148.2480  138.5263  155.5853 H   0  0  0  0  0  0  0  0  0  0  0  0
  150.2241  139.3476  153.3721 H   0  0  0  0  0  0  0  0  0  0  0  0
  150.5715  140.9721  155.1324 H   0  0  0  0  0  0  0  0  0  0  0  0
  150.2338  139.7728  156.3873 H   0  0  0  0  0  0  0  0  0  0  0  0
  152.6092  139.8158  154.4984 H   0  0  0  0  0  0  0  0  0  0  0  0
  152.6569  139.7015  156.2624 H   0  0  0  0  0  0  0  0  0  0  0  0
  152.7175  137.4384  154.7030 H   0  0  0  0  0  0  0  0  0  0  0  0
  151.8160  137.4499  156.2209 H   0  0  0  0  0  0  0  0  0  0  0  0
  143.2844  133.4706  149.7899 H   0  0  0  0  0  0  0  0  0  0  0  0
  1  2  1  0  0  0  0
  1 19  1  0  0  0  0
  1 20  1  0  0  0  0
  1 21  1  0  0  0  0
  2 18  1  0  0  0  0
  2  3  2  0  0  0  0
  3  4  1  0  0  0  0
  4  5  1  0  0  0  0
  4 17  2  0  0  0  0
  5  6  1  0  0  0  0
  5 22  1  0  0  0  0
  5 23  1  0  0  0  0
  6  7  1  0  0  0  0
  6 24  1  0  0  0  0
  6 25  1  0  0  0  0
  7  8  1  0  0  0  0
  7 26  1  0  0  0  0
  8  9  2  0  0  0  0
  8 10  1  0  0  0  0
 10 11  1  0  0  0  0
 10 27  1  0  0  0  0
 11 12  1  0  0  0  0
 11 28  1  0  0  0  0
 11 29  1  0  0  0  0
 12 16  1  0  0  0  0
 12 13  1  0  0  0  0
 12 30  1  0  0  0  0
 13 14  1  0  0  0  0
 13 31  1  0  0  0  0
 13 32  1  0  0  0  0
 14 15  1  0  0  0  0
 14 33  1  0  0  0  0
 14 34  1  0  0  0  0
 15 16  1  0  0  0  0
 15 35  1  0  0  0  0
 15 36  1  0  0  0  0
 17 18  1  0  0  0  0
 17 37  1  0  0  0  0
M  END
> <s_m_source_file>
AV-unprocessed.smi

> <i_m_source_file_index>
1226

> <i_lp_mmshare_version>
43012

> <i_f3d_flags>
0

> <s_epik_input>
W0NIM11jMW5jKFtjSF1zMSlbQ0gyXVtDSDJdW05IXUMoPU8pW05IXVtDSDJdW0NAQEhdMltDSDJdW0NIMl1bQ0gyXU8y

> <s_epik_cmdline>
J2VwaWtfcHl0aG9uJywgJy1waCcsICc3LjAnLCAnLXRuJywgJzgnLCAnLW1hJywgJzIwMCcsICctbWV0YWxfYmluZGluZycsICctaW1hZScsICc8aW5maWxlLm1hZT4nLCAnLW9tYWUnLCAnPG91dGZpbGUubWFlPic=

> <r_epik_Ionization_Penalty>
0.00199722

> <r_epik_Ionization_Penalty_Charging>
0

> <r_epik_Ionization_Penalty_Neutral>
0.00199722

> <r_epik_State_Penalty>
0.00132705

> <r_epik_Charging_Adjusted_Penalty>
0.00132705

> <i_epik_Tot_Q>
0

> <i_epik_Tot_abs_Q>
0

> <r_epik_Metal_State_Penalty>
-0

> <b_epik_Metal_Only>
0

> <s_lp_Force_Field>
OPLS_2005

> <r_lp_Energy>
8.90451

> <b_lp_Chiralities_Consistent>
1

> <s_lp_Variant>
AV-unprocessed.smi:1226-2

> <Gold.Version>
5.8.1

> <Gold.Id.Protein>
6NUR|6NUR_protein|mol2

> <Gold.PLP.Fitness>
40.6118

> <Gold.PLP.PLP>
-32.3957

> <Gold.PLP.part.hbond>
-2.0000

> <Gold.PLP.part.metal>
0.0000

> <Gold.PLP.part.buried>
-3.5917

> <Gold.PLP.part.nonpolar>
-27.4380

> <Gold.PLP.part.repulsive>
0.5391

> <Gold.PLP.ligand.clash>
0.0000

> <Gold.PLP.ligand.torsion>
0.3791

> <Gold.PLP.Chemscore.Hbond>
1.9600

> <Gold.PLP.Chemscore.CHOScore>
1.0000

> <Gold.PLP.Chemscore.Metal>
0.0000

> <Gold.Chemscore.Hbonds>
donor molecule, donor type, donor heavy atom, donor atom, acceptor molecule, acceptor atom, score
      L1  H     7    26       P1  7948  0.99
      L1  H    10    27       P1  7948  1.00
      L1  C    17    37       P1 10186  1.00

> <Gold.PLP.Chemscore.Internal.Correction>
0.0944

> <Gold.Rescore>
     Score         DG    S(hbond)    S(metal)    S(lipo)     H(rot)  DE(clash)    DE(int)     intcor
     16.39     -16.78       1.91        0.00      80.25       1.75       0.01       0.38       ----

> <Gold.Chemscore.Fitness>
16.3916

> <Gold.Chemscore.DG>
-16.7807

> <Gold.Chemscore.ZeroCoef>
-5.4800

> <Gold.Chemscore.Hbond>
1.9127

> <Gold.Chemscore.Metal>
0.0000

> <Gold.Chemscore.Lipo>
80.2480

> <Gold.Chemscore.Internal_Hbond>
0.0000

> <Gold.Chemscore.DEClash>
0.0100

> <Gold.Chemscore.DEInternal>
0.3791

> <Gold.Chemscore.Rot>
1.7487

> <Gold.Chemscore.Internal.Correction>
   9.000000E+99

> <Gold.Chemscore.Hbonds>
donor molecule, donor type, donor heavy atom, donor atom, acceptor molecule, acceptor atom, score
      L1  H     7    26       P1  7948  0.93
      L1  H    10    27       P1  7948  0.98

> <Gold.Chemscore.Hbond.Weighted>
-6.3885

> <Gold.Chemscore.Metal.Weighted>
-0.0000

> <Gold.Chemscore.Lipo.Weighted>
-9.3890

> <Gold.Chemscore.Internal_Hbond.Weighted>
0.0000

> <Gold.Chemscore.DEClash.Weighted>
0.0100

> <Gold.Chemscore.DEInternal.Weighted>
0.3791

> <Gold.Chemscore.Rot.Weighted>
4.4768

> <Gold.Chemscore.Internal.Correction.Weighted>
   9.000000E+99

> <Gold.Protein.RotatedTorsions>
[ 6907 6896 6895 6894 ] final  -71.66 input  -60.11 | X-H torsion
[ 7974 7965 7964 7962 ] final  -13.60 input  175.53 | X-H torsion
[ 8008 7997 7996 7995 ] final -122.52 input   59.86 | X-H torsion
[ 10167 10162 10161 10158 ] final  118.57 input  -65.29 | X-H torsion
[ 10718 10713 10712 10709 ] final   97.29 input   66.30 | X-H torsion
[ 10763 10752 10751 10750 ] final  108.24 input  -60.55 | X-H torsion
[ 11005 11000 10999 10996 ] final -177.09 input  -57.11 | X-H torsion

> <Gold.Protein.ActiveResidues>
 VAL166  LYS551  ARG553  GLY616  TRP617  ASP618  TYR619  PRO620  LYS621  CYS622 
 ASP623  PHE694  ASN695  SER759  ASP760  ASP761  ALA762  ILE779  LEU786  VAL792 
 PHE793  MET794  SER795  GLU796  ALA797  LYS798  CYS799  TRP800  GLU811  SER814 

> <Gold.Protein.RotatedAtoms>
  150.7203  134.5276  159.5683 H   0  0  0  0  0  0  0  0  0  0  0  0  # atno 6907 bound_to 6896
  152.2816  134.7819  160.0404 H   0  0  0  0  0  0  0  0  0  0  0  0  # atno 6908 bound_to 6896
  151.8463  133.3397  159.3696 H   0  0  0  0  0  0  0  0  0  0  0  0  # atno 6909 bound_to 6896
  146.2108  140.3227  142.8392 H   0  0  0  0  0  0  0  0  0  0  0  0  # atno 7974 bound_to 7965
  155.1656  140.0407  157.2852 H   0  0  0  0  0  0  0  0  0  0  0  0  # atno 8008 bound_to 7997
  154.6306  140.2523  155.7412 H   0  0  0  0  0  0  0  0  0  0  0  0  # atno 8009 bound_to 7997
  156.2482  140.2876  156.0655 H   0  0  0  0  0  0  0  0  0  0  0  0  # atno 8010 bound_to 7997
  139.6103  144.7080  151.2860 H   0  0  0  0  0  0  0  0  0  0  0  0  # atno 10167 bound_to 10162
  157.6915  131.0605  150.4621 H   0  0  0  0  0  0  0  0  0  0  0  0  # atno 10718 bound_to 10713
  153.4179  135.3818  155.2092 H   0  0  0  0  0  0  0  0  0  0  0  0  # atno 10763 bound_to 10752
  154.8742  135.3810  154.4421 H   0  0  0  0  0  0  0  0  0  0  0  0  # atno 10764 bound_to 10752
  153.4937  135.7088  153.5932 H   0  0  0  0  0  0  0  0  0  0  0  0  # atno 10765 bound_to 10752
  140.4448  134.6398  157.4774 H   0  0  0  0  0  0  0  0  0  0  0  0  # atno 11005 bound_to 11000
  144.8909  140.7522  143.5927 LP  0  0  0  0  0  0  0  0  0  0  0  0  # atno 17320 bound_to 7965
  145.3149  139.1806  143.4619 LP  0  0  0  0  0  0  0  0  0  0  0  0  # atno 17321 bound_to 7965
  140.7314  143.6852  150.7967 LP  0  0  0  0  0  0  0  0  0  0  0  0  # atno 17342 bound_to 10162
  140.0446  143.5311  152.2702 LP  0  0  0  0  0  0  0  0  0  0  0  0  # atno 17343 bound_to 10162
  156.4964  130.4107  149.6377 LP  0  0  0  0  0  0  0  0  0  0  0  0  # atno 17370 bound_to 10713
  156.3369  130.7361  151.2300 LP  0  0  0  0  0  0  0  0  0  0  0  0  # atno 17371 bound_to 10713
  140.0046  134.6784  155.9476 LP  0  0  0  0  0  0  0  0  0  0  0  0  # atno 17394 bound_to 11000
  141.1690  133.6537  156.4582 LP  0  0  0  0  0  0  0  0  0  0  0  0  # atno 17395 bound_to 11000

$$$$
