AV-unprocessed.smi:280|AV-procd|sdf|2097|dock4
  -GOLD-   2262021383D 1   1.00000     0.00000
 Structure written by MMmdl.
 59 62  0  0  0  0  0  0  0  0  2 V2000
  145.5440  142.8946  154.7265 C   0  0  0  0  0  0  0  0  0  0  0  0
  146.3741  141.6034  154.8758 C   0  0  2  0  0  0  0  0  0  0  0  0
  147.4843  141.6207  153.7953 C   0  0  0  0  0  0  0  0  0  0  0  0
  148.2397  140.3725  153.7388 N   0  0  0  0  0  0  0  0  0  0  0  0
  149.3300  140.2162  154.5366 C   0  0  0  0  0  0  0  0  0  0  0  0
  150.4228  139.5555  154.0691 N   0  0  0  0  0  0  0  0  0  0  0  0
  151.5063  139.4084  154.8366 C   0  0  0  0  0  0  0  0  0  0  0  0
  151.7083  139.8362  156.0834 N   0  0  0  0  0  0  0  0  0  0  0  0
  150.6145  140.4931  156.5648 C   0  0  0  0  0  0  0  0  0  0  0  0
  149.3933  140.7183  155.8679 C   0  0  0  0  0  0  0  0  0  0  0  0
  148.5002  141.3941  156.6906 N   0  0  0  0  0  0  0  0  0  0  0  0
  149.1593  141.5696  157.8027 C   0  0  0  0  0  0  0  0  0  0  0  0
  150.4459  141.0788  157.8082 N   0  0  0  0  0  0  0  0  0  0  0  0
  151.4012  141.1379  158.9065 C   0  0  0  0  0  0  0  0  0  0  0  0
  151.6742  142.5600  159.4553 C   0  0  0  0  0  0  0  0  0  0  0  0
  152.9760  142.5143  160.2669 C   0  0  0  0  0  0  0  0  0  0  0  0
  152.8545  141.6569  161.3837 O   0  0  0  0  0  0  0  0  0  0  0  0
  151.5220  143.7416  158.4814 C   0  0  0  0  0  0  0  0  0  0  0  0
  150.2089  144.0581  158.9895 O   0  0  0  0  0  0  0  0  0  0  0  0
  150.4923  143.2541  160.1538 C   0  0  0  0  0  0  0  0  0  0  0  0
  147.3957  139.1986  153.5636 C   0  0  0  0  0  0  0  0  0  0  0  0
  146.3589  139.1224  154.6920 C   0  0  0  0  0  0  0  0  0  0  0  0
  145.5390  140.3630  154.7809 N   0  3  1  0  0  0  0  0  0  0  0  0
  144.4893  140.2377  155.8342 C   0  0  0  0  0  0  0  0  0  0  0  0
  143.4900  139.0878  155.5573 C   0  0  0  0  0  0  0  0  0  0  0  0
  144.0205  137.7735  156.1552 C   0  0  0  0  0  0  0  0  0  0  0  0
  142.0767  139.3790  156.0935 C   0  0  0  0  0  0  0  0  0  0  0  0
  143.3970  138.8859  154.1612 O   0  0  0  0  0  0  0  0  0  0  0  0
  146.1921  143.7712  154.7485 H   0  0  0  0  0  0  0  0  0  0  0  0
  144.8155  143.0320  155.5236 H   0  0  0  0  0  0  0  0  0  0  0  0
  145.0079  142.9128  153.7772 H   0  0  0  0  0  0  0  0  0  0  0  0
  146.8431  141.6075  155.8606 H   0  0  0  0  0  0  0  0  0  0  0  0
  147.0327  141.7700  152.8135 H   0  0  0  0  0  0  0  0  0  0  0  0
  148.1555  142.4679  153.9431 H   0  0  0  0  0  0  0  0  0  0  0  0
  152.3296  138.8733  154.3869 H   0  0  0  0  0  0  0  0  0  0  0  0
  148.7199  142.0679  158.6544 H   0  0  0  0  0  0  0  0  0  0  0  0
  151.0274  140.4931  159.7030 H   0  0  0  0  0  0  0  0  0  0  0  0
  152.3246  140.6726  158.5603 H   0  0  0  0  0  0  0  0  0  0  0  0
  153.8042  142.1514  159.6570 H   0  0  0  0  0  0  0  0  0  0  0  0
  153.2587  143.5085  160.6144 H   0  0  0  0  0  0  0  0  0  0  0  0
  153.3527  140.8716  161.2157 H   0  0  0  0  0  0  0  0  0  0  0  0
  152.2282  144.5541  158.6616 H   0  0  0  0  0  0  0  0  0  0  0  0
  151.5176  143.4698  157.4273 H   0  0  0  0  0  0  0  0  0  0  0  0
  149.6708  142.5942  160.4280 H   0  0  0  0  0  0  0  0  0  0  0  0
  150.7812  143.8724  161.0053 H   0  0  0  0  0  0  0  0  0  0  0  0
  146.8923  139.2722  152.5988 H   0  0  0  0  0  0  0  0  0  0  0  0
  147.9753  138.2771  153.5355 H   0  0  0  0  0  0  0  0  0  0  0  0
  145.7137  138.2596  154.5275 H   0  0  0  0  0  0  0  0  0  0  0  0
  146.8689  138.9568  155.6426 H   0  0  0  0  0  0  0  0  0  0  0  0
  144.9558  140.0907  156.8102 H   0  0  0  0  0  0  0  0  0  0  0  0
  143.9355  141.1680  155.9474 H   0  0  0  0  0  0  0  0  0  0  0  0
  144.1138  137.8440  157.2395 H   0  0  0  0  0  0  0  0  0  0  0  0
  145.0038  137.5205  155.7565 H   0  0  0  0  0  0  0  0  0  0  0  0
  143.3540  136.9380  155.9383 H   0  0  0  0  0  0  0  0  0  0  0  0
  142.0893  139.5405  157.1717 H   0  0  0  0  0  0  0  0  0  0  0  0
  141.4001  138.5463  155.8970 H   0  0  0  0  0  0  0  0  0  0  0  0
  141.6406  140.2642  155.6295 H   0  0  0  0  0  0  0  0  0  0  0  0
  143.4380  139.7269  153.7312 H   0  0  0  0  0  0  0  0  0  0  0  0
  145.0455  140.4339  153.9026 H   0  0  0  0  0  0  0  0  0  0  0  0
  1  2  1  0  0  0  0
  1 29  1  0  0  0  0
  1 30  1  0  0  0  0
  1 31  1  0  0  0  0
  2 23  1  0  0  0  0
  2  3  1  0  0  0  0
  2 32  1  0  0  0  0
  3  4  1  0  0  0  0
  3 33  1  0  0  0  0
  3 34  1  0  0  0  0
  4  5  1  0  0  0  0
  4 21  1  0  0  0  0
  5 10  1  0  0  0  0
  5  6  2  0  0  0  0
  6  7  1  0  0  0  0
  7  8  2  0  0  0  0
  7 35  1  0  0  0  0
  8  9  1  0  0  0  0
  9 13  1  0  0  0  0
  9 10  2  0  0  0  0
 10 11  1  0  0  0  0
 11 12  2  0  0  0  0
 12 13  1  0  0  0  0
 12 36  1  0  0  0  0
 13 14  1  0  0  0  0
 14 15  1  0  0  0  0
 14 37  1  0  0  0  0
 14 38  1  0  0  0  0
 15 20  1  0  0  0  0
 15 16  1  0  0  0  0
 15 18  1  0  0  0  0
 16 17  1  0  0  0  0
 16 39  1  0  0  0  0
 16 40  1  0  0  0  0
 17 41  1  0  0  0  0
 18 19  1  0  0  0  0
 18 42  1  0  0  0  0
 18 43  1  0  0  0  0
 19 20  1  0  0  0  0
 20 44  1  0  0  0  0
 20 45  1  0  0  0  0
 21 22  1  0  0  0  0
 21 46  1  0  0  0  0
 21 47  1  0  0  0  0
 22 23  1  0  0  0  0
 22 48  1  0  0  0  0
 22 49  1  0  0  0  0
 23 24  1  0  0  0  0
 23 59  1  0  0  0  0
 24 25  1  0  0  0  0
 24 50  1  0  0  0  0
 24 51  1  0  0  0  0
 25 26  1  0  0  0  0
 25 27  1  0  0  0  0
 25 28  1  0  0  0  0
 26 52  1  0  0  0  0
 26 53  1  0  0  0  0
 26 54  1  0  0  0  0
 27 55  1  0  0  0  0
 27 56  1  0  0  0  0
 27 57  1  0  0  0  0
 28 58  1  0  0  0  0
M  CHG  1  23   1
M  END
> <s_m_source_file>
AV-unprocessed.smi

> <i_m_source_file_index>
280

> <i_lp_mmshare_version>
43012

> <i_f3d_flags>
0

> <s_epik_input>
W0NIM11DKFtDSDNdKShbT0hdKVtDSDJdTjFbQ0gyXVtDSDJdTihbQ0gyXVtDQEhdMVtDSDNdKWMobltjSF1uMiljKGMyMyluW2NIXW4zW0NIMl1DNChbQ0gyXVtPSF0pW0NIMl1PW0NIMl00

> <s_epik_cmdline>
J2VwaWtfcHl0aG9uJywgJy1waCcsICc3LjAnLCAnLXRuJywgJzgnLCAnLW1hJywgJzIwMCcsICctbWV0YWxfYmluZGluZycsICctaW1hZScsICc8aW5maWxlLm1hZT4nLCAnLW9tYWUnLCAnPG91dGZpbGUubWFlPic=

> <r_lp_tautomer_probability>
1

> <r_epik_Ionization_Penalty>
0.00179402

> <r_epik_Ionization_Penalty_Charging>
0.00173996

> <r_epik_Ionization_Penalty_Neutral>
5.40607e-05

> <r_epik_State_Penalty>
-0

> <r_epik_Charging_Adjusted_Penalty>
0.00173996

> <i_epik_Tot_Q>
1

> <i_epik_Tot_abs_Q>
1

> <r_epik_Metal_State_Penalty>
-0

> <b_epik_Metal_Only>
0

> <s_lp_Force_Field>
OPLS_2005

> <r_lp_Energy>
49.5757

> <b_lp_Chiralities_Consistent>
1

> <s_lp_Variant>
AV-unprocessed.smi:280-1

> <Gold.Version>
5.8.1

> <Gold.Id.Protein>
6NUR|6NUR_protein|mol2

> <Gold.PLP.Fitness>
50.2139

> <Gold.PLP.PLP>
-43.3741

> <Gold.PLP.part.hbond>
-2.4623

> <Gold.PLP.part.metal>
0.0000

> <Gold.PLP.part.buried>
-8.8740

> <Gold.PLP.part.nonpolar>
-35.6762

> <Gold.PLP.part.repulsive>
2.4394

> <Gold.PLP.ligand.clash>
0.0000

> <Gold.PLP.ligand.torsion>
1.5343

> <Gold.PLP.Chemscore.Hbond>
2.8945

> <Gold.PLP.Chemscore.CHOScore>
0.0000

> <Gold.PLP.Chemscore.Metal>
0.0000

> <Gold.Chemscore.Hbonds>
donor molecule, donor type, donor heavy atom, donor atom, acceptor molecule, acceptor atom, score
      L1  H    23    59       P1 10175  2.00
      L1  H    28    58       P1 10175  0.76

> <Gold.PLP.Chemscore.Internal.Correction>
1.2248

> <Gold.Rescore>
     Score         DG    S(hbond)    S(metal)    S(lipo)     H(rot)  DE(clash)    DE(int)     intcor
      7.86     -11.54       1.82        0.00      79.26       3.63       0.39       3.29       ----

> <Gold.Chemscore.Fitness>
7.8577

> <Gold.Chemscore.DG>
-11.5373

> <Gold.Chemscore.ZeroCoef>
-5.4800

> <Gold.Chemscore.Hbond>
1.8164

> <Gold.Chemscore.Metal>
0.0000

> <Gold.Chemscore.Lipo>
79.2574

> <Gold.Chemscore.Internal_Hbond>
0.0000

> <Gold.Chemscore.DEClash>
0.3898

> <Gold.Chemscore.DEInternal>
3.2898

> <Gold.Chemscore.Rot>
3.6260

> <Gold.Chemscore.Internal.Correction>
   9.000000E+99

> <Gold.Chemscore.Hbonds>
donor molecule, donor type, donor heavy atom, donor atom, acceptor molecule, acceptor atom, score
      L1  H    23    59       P1 10175  0.98
      L1  H    28    58       P1 10175  0.72

> <Gold.Chemscore.Hbond.Weighted>
-6.0666

> <Gold.Chemscore.Metal.Weighted>
-0.0000

> <Gold.Chemscore.Lipo.Weighted>
-9.2731

> <Gold.Chemscore.Internal_Hbond.Weighted>
0.0000

> <Gold.Chemscore.DEClash.Weighted>
0.3898

> <Gold.Chemscore.DEInternal.Weighted>
3.2898

> <Gold.Chemscore.Rot.Weighted>
9.2825

> <Gold.Chemscore.Internal.Correction.Weighted>
   9.000000E+99

> <Gold.Protein.RotatedTorsions>
[ 6907 6896 6895 6894 ] final  138.03 input  -60.11 | X-H torsion
[ 7974 7965 7964 7962 ] final  178.82 input  175.53 | X-H torsion
[ 8008 7997 7996 7995 ] final -122.64 input   59.86 | X-H torsion
[ 10167 10162 10161 10158 ] final   95.74 input  -65.29 | X-H torsion
[ 10718 10713 10712 10709 ] final  -43.16 input   66.30 | X-H torsion
[ 10763 10752 10751 10750 ] final -168.10 input  -60.55 | X-H torsion
[ 11005 11000 10999 10996 ] final   34.30 input  -57.11 | X-H torsion

> <Gold.Protein.ActiveResidues>
 VAL166  LYS551  ARG553  GLY616  TRP617  ASP618  TYR619  PRO620  LYS621  CYS622 
 ASP623  PHE694  ASN695  SER759  ASP760  ASP761  ALA762  ILE779  LEU786  VAL792 
 PHE793  MET794  SER795  GLU796  ALA797  LYS798  CYS799  TRP800  GLU811  SER814 

> <Gold.Protein.RotatedAtoms>
  152.2713  133.5385  159.5440 H   0  0  0  0  0  0  0  0  0  0  0  0  # atno 6907 bound_to 6896
  150.7160  134.0694  159.3868 H   0  0  0  0  0  0  0  0  0  0  0  0  # atno 6908 bound_to 6896
  151.8609  135.0525  160.0520 H   0  0  0  0  0  0  0  0  0  0  0  0  # atno 6909 bound_to 6896
  144.7152  140.0455  143.6436 H   0  0  0  0  0  0  0  0  0  0  0  0  # atno 7974 bound_to 7965
  155.1676  140.0407  157.2856 H   0  0  0  0  0  0  0  0  0  0  0  0  # atno 8008 bound_to 7997
  154.6292  140.2520  155.7427 H   0  0  0  0  0  0  0  0  0  0  0  0  # atno 8009 bound_to 7997
  156.2475  140.2879  156.0636 H   0  0  0  0  0  0  0  0  0  0  0  0  # atno 8010 bound_to 7997
  139.7960  144.6833  150.9828 H   0  0  0  0  0  0  0  0  0  0  0  0  # atno 10167 bound_to 10162
  156.2519  130.4189  149.8639 H   0  0  0  0  0  0  0  0  0  0  0  0  # atno 10718 bound_to 10713
  154.6663  135.2932  154.9800 H   0  0  0  0  0  0  0  0  0  0  0  0  # atno 10763 bound_to 10752
  154.0843  135.6600  153.4846 H   0  0  0  0  0  0  0  0  0  0  0  0  # atno 10764 bound_to 10752
  153.0460  135.5204  154.7638 H   0  0  0  0  0  0  0  0  0  0  0  0  # atno 10765 bound_to 10752
  140.2543  134.3267  155.7879 H   0  0  0  0  0  0  0  0  0  0  0  0  # atno 11005 bound_to 11000
  145.9988  139.3074  143.0940 LP  0  0  0  0  0  0  0  0  0  0  0  0  # atno 17320 bound_to 7965
  145.8818  140.9358  143.0597 LP  0  0  0  0  0  0  0  0  0  0  0  0  # atno 17321 bound_to 7965
  140.7820  143.4331  151.0665 LP  0  0  0  0  0  0  0  0  0  0  0  0  # atno 17342 bound_to 10162
  139.8005  143.8091  152.3162 LP  0  0  0  0  0  0  0  0  0  0  0  0  # atno 17343 bound_to 10162
  156.6185  130.8616  151.3470 LP  0  0  0  0  0  0  0  0  0  0  0  0  # atno 17370 bound_to 10713
  157.7218  130.9568  150.1469 LP  0  0  0  0  0  0  0  0  0  0  0  0  # atno 17371 bound_to 10713
  141.2198  133.7371  156.9086 LP  0  0  0  0  0  0  0  0  0  0  0  0  # atno 17394 bound_to 11000
  140.1527  134.9219  157.2614 LP  0  0  0  0  0  0  0  0  0  0  0  0  # atno 17395 bound_to 11000

$$$$
