AV-unprocessed.smi:2119|AV-procd|sdf|8631|dock10
  -GOLD-   2272011373D 1   1.00000     0.00000
 Structure written by MMmdl.
 47 49  0  0  0  0  0  0  0  0  1 V2000
  144.6438  136.6326  153.3201 O   0  0  0  0  0  0  0  0  0  0  0  0
  145.7967  136.3087  153.0372 C   0  0  0  0  0  0  0  0  0  0  0  0
  146.8740  136.9859  153.4542 N   0  0  0  0  0  0  0  0  0  0  0  0
  146.8272  138.1748  154.2971 C   0  0  0  0  0  0  0  0  0  0  0  0
  148.1901  138.9166  154.3190 C   0  0  1  0  0  0  0  0  0  0  0  0
  148.0191  140.4672  154.3839 C   0  0  2  0  0  0  0  0  0  0  0  0
  147.2354  141.0314  155.5732 C   0  0  0  0  0  0  0  0  0  0  0  0
  146.2329  141.9904  154.9316 C   0  0  0  0  0  0  0  0  0  0  0  0
  146.8346  142.3487  153.6983 O   0  0  0  0  0  0  0  0  0  0  0  0
  147.4059  141.1673  153.1601 C   0  0  0  0  0  0  0  0  0  0  0  0
  149.1888  138.3524  155.2497 N   0  0  0  0  0  0  0  0  0  0  0  0
  150.5586  138.7652  154.9507 C   0  0  0  0  0  0  0  0  0  0  0  0
  151.5470  138.2812  156.0238 C   0  0  0  0  0  0  0  0  0  0  0  0
  151.4626  136.8649  156.1359 O   0  0  0  0  0  0  0  0  0  0  0  0
  150.1551  136.4209  156.4820 C   0  0  0  0  0  0  0  0  0  0  0  0
  149.1376  136.9031  155.4325 C   0  0  0  0  0  0  0  0  0  0  0  0
  146.1502  135.2612  152.2726 N   0  0  0  0  0  0  0  0  0  0  0  0
  145.3224  134.2828  151.6567 C   0  0  0  0  0  0  0  0  0  0  0  0
  145.7977  133.2132  150.8588 C   0  0  0  0  0  0  0  0  0  0  0  0
  144.8665  132.3215  150.2924 C   0  0  0  0  0  0  0  0  0  0  0  0
  143.4961  132.5341  150.5365 C   0  0  0  0  0  0  0  0  0  0  0  0
  143.0278  133.5547  151.2849 N   0  0  0  0  0  0  0  0  0  0  0  0
  143.9264  134.4051  151.8253 C   0  0  0  0  0  0  0  0  0  0  0  0
  147.7865  136.6586  153.1728 H   0  0  0  0  0  0  0  0  0  0  0  0
  146.0367  138.8388  153.9445 H   0  0  0  0  0  0  0  0  0  0  0  0
  146.5400  137.8499  155.2965 H   0  0  0  0  0  0  0  0  0  0  0  0
  148.6133  138.7547  153.3263 H   0  0  0  0  0  0  0  0  0  0  0  0
  149.0233  140.8840  154.4765 H   0  0  0  0  0  0  0  0  0  0  0  0
  146.7290  140.2848  156.1843 H   0  0  0  0  0  0  0  0  0  0  0  0
  147.9110  141.5787  156.2318 H   0  0  0  0  0  0  0  0  0  0  0  0
  145.2857  141.4852  154.7371 H   0  0  0  0  0  0  0  0  0  0  0  0
  146.0316  142.8650  155.5505 H   0  0  0  0  0  0  0  0  0  0  0  0
  148.1525  141.4080  152.4030 H   0  0  0  0  0  0  0  0  0  0  0  0
  146.6295  140.5789  152.6753 H   0  0  0  0  0  0  0  0  0  0  0  0
  150.8748  138.3647  153.9878 H   0  0  0  0  0  0  0  0  0  0  0  0
  150.6130  139.8517  154.8750 H   0  0  0  0  0  0  0  0  0  0  0  0
  152.5660  138.5578  155.7533 H   0  0  0  0  0  0  0  0  0  0  0  0
  151.3318  138.7459  156.9871 H   0  0  0  0  0  0  0  0  0  0  0  0
  150.1516  135.3323  156.5399 H   0  0  0  0  0  0  0  0  0  0  0  0
  149.8902  136.7937  157.4727 H   0  0  0  0  0  0  0  0  0  0  0  0
  148.1507  136.5982  155.7704 H   0  0  0  0  0  0  0  0  0  0  0  0
  149.3282  136.3971  154.4855 H   0  0  0  0  0  0  0  0  0  0  0  0
  147.1368  135.1714  152.0776 H   0  0  0  0  0  0  0  0  0  0  0  0
  146.8464  133.0628  150.6570 H   0  0  0  0  0  0  0  0  0  0  0  0
  145.1955  131.4954  149.6798 H   0  0  0  0  0  0  0  0  0  0  0  0
  142.7564  131.8694  150.1152 H   0  0  0  0  0  0  0  0  0  0  0  0
  143.5150  135.2111  152.4154 H   0  0  0  0  0  0  0  0  0  0  0  0
  1  2  2  0  0  0  0
  2  3  1  0  0  0  0
  2 17  1  0  0  0  0
  3  4  1  0  0  0  0
  3 24  1  0  0  0  0
  4  5  1  0  0  0  0
  4 25  1  0  0  0  0
  4 26  1  0  0  0  0
  5  6  1  0  0  0  0
  5 11  1  0  0  0  0
  5 27  1  0  0  0  0
  6 10  1  0  0  0  0
  6  7  1  0  0  0  0
  6 28  1  0  0  0  0
  7  8  1  0  0  0  0
  7 29  1  0  0  0  0
  7 30  1  0  0  0  0
  8  9  1  0  0  0  0
  8 31  1  0  0  0  0
  8 32  1  0  0  0  0
  9 10  1  0  0  0  0
 10 33  1  0  0  0  0
 10 34  1  0  0  0  0
 11 16  1  0  0  0  0
 11 12  1  0  0  0  0
 12 13  1  0  0  0  0
 12 35  1  0  0  0  0
 12 36  1  0  0  0  0
 13 14  1  0  0  0  0
 13 37  1  0  0  0  0
 13 38  1  0  0  0  0
 14 15  1  0  0  0  0
 15 16  1  0  0  0  0
 15 39  1  0  0  0  0
 15 40  1  0  0  0  0
 16 41  1  0  0  0  0
 16 42  1  0  0  0  0
 17 18  1  0  0  0  0
 17 43  1  0  0  0  0
 18 23  1  0  0  0  0
 18 19  2  0  0  0  0
 19 20  1  0  0  0  0
 19 44  1  0  0  0  0
 20 21  2  0  0  0  0
 20 45  1  0  0  0  0
 21 22  1  0  0  0  0
 21 46  1  0  0  0  0
 22 23  2  0  0  0  0
 23 47  1  0  0  0  0
M  END
> <s_m_source_file>
AV-unprocessed.smi

> <i_m_source_file_index>
2119

> <i_lp_mmshare_version>
43012

> <i_f3d_flags>
0

> <s_epik_input>
W2NIXTFuW2NIXVtjSF1bY0hdYzFbTkhdQyg9TylbTkhdW0NIMl1bQ0BIXShbQ0BASF0yW0NIMl1bQ0gyXU9bQ0gyXTIpTjNbQ0gyXVtDSDJdT1tDSDJdW0NIMl0z

> <s_epik_cmdline>
J2VwaWtfcHl0aG9uJywgJy1waCcsICc3LjAnLCAnLXRuJywgJzgnLCAnLW1hJywgJzIwMCcsICctbWV0YWxfYmluZGluZycsICctaW1hZScsICc8aW5maWxlLm1hZT4nLCAnLW9tYWUnLCAnPG91dGZpbGUubWFlPic=

> <r_epik_Ionization_Penalty>
0.129787

> <r_epik_Ionization_Penalty_Charging>
0

> <r_epik_Ionization_Penalty_Neutral>
0.129787

> <r_epik_State_Penalty>
0.121311

> <r_epik_Charging_Adjusted_Penalty>
0.121311

> <i_epik_Tot_Q>
0

> <i_epik_Tot_abs_Q>
0

> <r_epik_Metal_State_Penalty>
0.117931

> <b_epik_Metal_Only>
0

> <s_lp_Force_Field>
OPLS_2005

> <r_lp_Energy>
56.2921

> <b_lp_Chiralities_Consistent>
1

> <s_lp_Variant>
AV-unprocessed.smi:2119-2

> <Gold.Version>
5.8.1

> <Gold.Id.Protein>
6NUR|6NUR_protein|mol2

> <Gold.PLP.Fitness>
43.9123

> <Gold.PLP.PLP>
-33.7272

> <Gold.PLP.part.hbond>
-3.0000

> <Gold.PLP.part.metal>
0.0000

> <Gold.PLP.part.buried>
-8.2195

> <Gold.PLP.part.nonpolar>
-24.1162

> <Gold.PLP.part.repulsive>
0.7399

> <Gold.PLP.ligand.clash>
0.0000

> <Gold.PLP.ligand.torsion>
0.9119

> <Gold.PLP.Chemscore.Hbond>
2.9040

> <Gold.PLP.Chemscore.CHOScore>
1.0000

> <Gold.PLP.Chemscore.Metal>
0.0000

> <Gold.Chemscore.Hbonds>
donor molecule, donor type, donor heavy atom, donor atom, acceptor molecule, acceptor atom, score
      L1  H     3    24       P1  7948  0.99
      L1  H    17    43       P1  7948  0.80
      L1  C    21    46       P1 10952  1.00

> <Gold.PLP.Chemscore.Internal.Correction>
0.2969

> <Gold.Rescore>
     Score         DG    S(hbond)    S(metal)    S(lipo)     H(rot)  DE(clash)    DE(int)     intcor
     16.61     -20.05       2.84        0.00      79.49       1.65       0.00       3.43       ----

> <Gold.Chemscore.Fitness>
16.6149

> <Gold.Chemscore.DG>
-20.0487

> <Gold.Chemscore.ZeroCoef>
-5.4800

> <Gold.Chemscore.Hbond>
2.8426

> <Gold.Chemscore.Metal>
0.0000

> <Gold.Chemscore.Lipo>
79.4918

> <Gold.Chemscore.Internal_Hbond>
0.0000

> <Gold.Chemscore.DEClash>
0.0000

> <Gold.Chemscore.DEInternal>
3.4338

> <Gold.Chemscore.Rot>
1.6508

> <Gold.Chemscore.Internal.Correction>
   9.000000E+99

> <Gold.Chemscore.Hbonds>
donor molecule, donor type, donor heavy atom, donor atom, acceptor molecule, acceptor atom, score
      L1  H     3    24       P1  7948  0.94
      L1  H    17    43       P1  7948  0.76
      P1  H 10752 10763       L1    14  0.06

> <Gold.Chemscore.Hbond.Weighted>
-9.4943

> <Gold.Chemscore.Metal.Weighted>
-0.0000

> <Gold.Chemscore.Lipo.Weighted>
-9.3005

> <Gold.Chemscore.Internal_Hbond.Weighted>
0.0000

> <Gold.Chemscore.DEClash.Weighted>
0.0000

> <Gold.Chemscore.DEInternal.Weighted>
3.4338

> <Gold.Chemscore.Rot.Weighted>
4.2262

> <Gold.Chemscore.Internal.Correction.Weighted>
   9.000000E+99

> <Gold.Protein.RotatedTorsions>
[ 6907 6896 6895 6894 ] final   52.79 input  -60.11 | X-H torsion
[ 7974 7965 7964 7962 ] final  127.49 input  175.53 | X-H torsion
[ 8008 7997 7996 7995 ] final  169.74 input   59.86 | X-H torsion
[ 10167 10162 10161 10158 ] final -169.34 input  -65.29 | X-H torsion
[ 10718 10713 10712 10709 ] final  170.26 input   66.30 | X-H torsion
[ 10763 10752 10751 10750 ] final   68.18 input  -60.55 | X-H torsion
[ 11005 11000 10999 10996 ] final  -40.56 input  -57.11 | X-H torsion

> <Gold.Protein.ActiveResidues>
 VAL166  LYS551  ARG553  GLY616  TRP617  ASP618  TYR619  PRO620  LYS621  CYS622 
 ASP623  PHE694  ASN695  SER759  ASP760  ASP761  ALA762  ILE779  LEU786  VAL792 
 PHE793  MET794  SER795  GLU796  ALA797  LYS798  CYS799  TRP800  GLU811  SER814 

> <Gold.Protein.RotatedAtoms>
  152.3270  134.7308  160.0299 H   0  0  0  0  0  0  0  0  0  0  0  0  # atno 6907 bound_to 6896
  151.7737  133.3338  159.3460 H   0  0  0  0  0  0  0  0  0  0  0  0  # atno 6908 bound_to 6896
  150.7401  134.5926  159.6040 H   0  0  0  0  0  0  0  0  0  0  0  0  # atno 6909 bound_to 6896
  145.0500  139.3891  143.5059 H   0  0  0  0  0  0  0  0  0  0  0  0  # atno 7974 bound_to 7965
  156.1429  140.1556  156.8892 H   0  0  0  0  0  0  0  0  0  0  0  0  # atno 8008 bound_to 7997
  154.5003  140.0827  156.7822 H   0  0  0  0  0  0  0  0  0  0  0  0  # atno 8009 bound_to 7997
  155.4043  140.3416  155.4261 H   0  0  0  0  0  0  0  0  0  0  0  0  # atno 8010 bound_to 7997
  139.5929  144.1175  152.1655 H   0  0  0  0  0  0  0  0  0  0  0  0  # atno 10167 bound_to 10162
  157.0108  131.0203  151.2804 H   0  0  0  0  0  0  0  0  0  0  0  0  # atno 10718 bound_to 10713
  153.0222  135.5257  154.7094 H   0  0  0  0  0  0  0  0  0  0  0  0  # atno 10763 bound_to 10752
  154.6180  135.2886  155.0360 H   0  0  0  0  0  0  0  0  0  0  0  0  # atno 10764 bound_to 10752
  154.1357  135.6586  153.4984 H   0  0  0  0  0  0  0  0  0  0  0  0  # atno 10765 bound_to 10752
  141.0183  133.6875  156.2337 H   0  0  0  0  0  0  0  0  0  0  0  0  # atno 11005 bound_to 11000
  146.3517  140.0145  142.8664 LP  0  0  0  0  0  0  0  0  0  0  0  0  # atno 17320 bound_to 7965
  145.1539  140.9637  143.4417 LP  0  0  0  0  0  0  0  0  0  0  0  0  # atno 17321 bound_to 7965
  140.0753  144.5745  150.7161 LP  0  0  0  0  0  0  0  0  0  0  0  0  # atno 17342 bound_to 10162
  140.7188  143.2569  151.4348 LP  0  0  0  0  0  0  0  0  0  0  0  0  # atno 17343 bound_to 10162
  157.5322  130.8066  149.7930 LP  0  0  0  0  0  0  0  0  0  0  0  0  # atno 17370 bound_to 10713
  156.0137  130.3822  150.2181 LP  0  0  0  0  0  0  0  0  0  0  0  0  # atno 17371 bound_to 10713
  140.6617  134.4961  157.5583 LP  0  0  0  0  0  0  0  0  0  0  0  0  # atno 17394 bound_to 11000
  139.9130  134.8304  156.1461 LP  0  0  0  0  0  0  0  0  0  0  0  0  # atno 17395 bound_to 11000

$$$$
