AV-unprocessed.smi:1885|AV-procd|sdf|7653|dock5
  -GOLD-   22720 9383D 1   1.00000     0.00000
 Structure written by MMmdl.
 44 46  0  0  0  0  0  0  0  0  2 V2000
  146.0109  132.0953  152.3862 C   0  0  0  0  0  0  0  0  0  0  0  0
  147.2110  131.5514  152.9165 O   0  0  0  0  0  0  0  0  0  0  0  0
  148.0500  132.3914  153.6171 C   0  0  0  0  0  0  0  0  0  0  0  0
  147.7496  133.7422  153.9249 C   0  0  0  0  0  0  0  0  0  0  0  0
  148.6666  134.5302  154.6474 C   0  0  0  0  0  0  0  0  0  0  0  0
  149.8975  133.9882  155.0685 C   0  0  0  0  0  0  0  0  0  0  0  0
  150.8653  134.8423  155.8666 C   0  0  0  0  0  0  0  0  0  0  0  0
  150.3287  136.1170  156.1857 O   0  0  0  0  0  0  0  0  0  0  0  0
  151.0008  137.1767  155.5254 C   0  0  0  0  0  0  0  0  0  0  0  0
  150.9451  138.4376  156.4073 C   0  0  1  0  0  0  0  0  0  0  0  0
  151.6244  138.1698  157.6164 O   0  0  0  0  0  0  0  0  0  0  0  0
  151.6162  139.6740  155.7760 C   0  0  0  0  0  0  0  0  0  0  0  0
  151.1430  140.9415  156.3513 N   0  0  0  0  0  0  0  0  0  0  0  0
  150.1814  141.7892  155.8942 C   0  0  0  0  0  0  0  0  0  0  0  0
  150.0949  142.8263  156.7721 N   0  3  0  0  0  0  0  0  0  0  0  0
  151.0141  142.6397  157.8067 C   0  0  0  0  0  0  0  0  0  0  0  0
  151.2977  143.4194  158.9234 C   0  0  0  0  0  0  0  0  0  0  0  0
  152.3035  142.9451  159.7907 C   0  0  0  0  0  0  0  0  0  0  0  0
  152.6206  143.6663  160.8919 F   0  0  0  0  0  0  0  0  0  0  0  0
  152.9854  141.7374  159.5318 C   0  0  0  0  0  0  0  0  0  0  0  0
  153.9473  141.3195  160.3882 F   0  0  0  0  0  0  0  0  0  0  0  0
  152.6880  140.9546  158.3968 C   0  0  0  0  0  0  0  0  0  0  0  0
  151.6913  141.4296  157.5445 C   0  0  0  0  0  0  0  0  0  0  0  0
  150.1974  132.6426  154.7724 C   0  0  0  0  0  0  0  0  0  0  0  0
  149.2803  131.8554  154.0498 C   0  0  0  0  0  0  0  0  0  0  0  0
  145.4626  131.3132  151.8613 H   0  0  0  0  0  0  0  0  0  0  0  0
  146.2163  132.8914  151.6689 H   0  0  0  0  0  0  0  0  0  0  0  0
  145.3632  132.4782  153.1759 H   0  0  0  0  0  0  0  0  0  0  0  0
  146.8200  134.1976  153.6194 H   0  0  0  0  0  0  0  0  0  0  0  0
  148.4195  135.5562  154.8778 H   0  0  0  0  0  0  0  0  0  0  0  0
  151.1297  134.3181  156.7866 H   0  0  0  0  0  0  0  0  0  0  0  0
  151.7794  134.9582  155.2825 H   0  0  0  0  0  0  0  0  0  0  0  0
  152.0315  136.9090  155.2863 H   0  0  0  0  0  0  0  0  0  0  0  0
  150.4864  137.3535  154.5809 H   0  0  0  0  0  0  0  0  0  0  0  0
  149.9067  138.6786  156.6391 H   0  0  0  0  0  0  0  0  0  0  0  0
  151.3899  137.3029  157.9106 H   0  0  0  0  0  0  0  0  0  0  0  0
  152.6929  139.6372  155.9477 H   0  0  0  0  0  0  0  0  0  0  0  0
  151.4830  139.6878  154.6944 H   0  0  0  0  0  0  0  0  0  0  0  0
  149.5929  141.6617  154.9966 H   0  0  0  0  0  0  0  0  0  0  0  0
  150.7796  144.3454  159.1244 H   0  0  0  0  0  0  0  0  0  0  0  0
  153.2228  140.0356  158.2106 H   0  0  0  0  0  0  0  0  0  0  0  0
  151.1304  132.2062  155.0972 H   0  0  0  0  0  0  0  0  0  0  0  0
  149.5233  130.8267  153.8270 H   0  0  0  0  0  0  0  0  0  0  0  0
  149.4540  143.6029  156.6696 H   0  0  0  0  0  0  0  0  0  0  0  0
  1  2  1  0  0  0  0
  1 26  1  0  0  0  0
  1 27  1  0  0  0  0
  1 28  1  0  0  0  0
  2  3  1  0  0  0  0
  3 25  1  0  0  0  0
  3  4  2  0  0  0  0
  4  5  1  0  0  0  0
  4 29  1  0  0  0  0
  5  6  2  0  0  0  0
  5 30  1  0  0  0  0
  6  7  1  0  0  0  0
  6 24  1  0  0  0  0
  7  8  1  0  0  0  0
  7 31  1  0  0  0  0
  7 32  1  0  0  0  0
  8  9  1  0  0  0  0
  9 10  1  0  0  0  0
  9 33  1  0  0  0  0
  9 34  1  0  0  0  0
 10 11  1  0  0  0  0
 10 12  1  0  0  0  0
 10 35  1  0  0  0  0
 11 36  1  0  0  0  0
 12 13  1  0  0  0  0
 12 37  1  0  0  0  0
 12 38  1  0  0  0  0
 13 23  1  0  0  0  0
 13 14  1  0  0  0  0
 14 15  2  0  0  0  0
 14 39  1  0  0  0  0
 15 16  1  0  0  0  0
 15 44  1  0  0  0  0
 16 23  2  0  0  0  0
 16 17  1  0  0  0  0
 17 18  2  0  0  0  0
 17 40  1  0  0  0  0
 18 19  1  0  0  0  0
 18 20  1  0  0  0  0
 20 21  1  0  0  0  0
 20 22  2  0  0  0  0
 22 23  1  0  0  0  0
 22 41  1  0  0  0  0
 24 25  2  0  0  0  0
 24 42  1  0  0  0  0
 25 43  1  0  0  0  0
M  CHG  1  15   1
M  END
> <s_m_source_file>
AV-unprocessed.smi

> <i_m_source_file_index>
1885

> <i_lp_mmshare_version>
43012

> <i_f3d_flags>
0

> <s_epik_input>
W0NIM11PYzFbY0hdW2NIXWMoW2NIXVtjSF0xKVtDSDJdT1tDSDJdW0NASF0oW09IXSlbQ0gyXW4oW2NIXW4yKWMoYzIzKVtjSF1jKEYpYyhGKVtjSF0z

> <s_epik_cmdline>
J2VwaWtfcHl0aG9uJywgJy1waCcsICc3LjAnLCAnLXRuJywgJzgnLCAnLW1hJywgJzIwMCcsICctbWV0YWxfYmluZGluZycsICctaW1hZScsICc8aW5maWxlLm1hZT4nLCAnLW9tYWUnLCAnPG91dGZpbGUubWFlPic=

> <r_lp_tautomer_probability>
1

> <r_epik_Ionization_Penalty>
2.14697

> <r_epik_Ionization_Penalty_Charging>
2.14697

> <r_epik_Ionization_Penalty_Neutral>
9.74819e-07

> <r_epik_State_Penalty>
2.28651

> <r_epik_Charging_Adjusted_Penalty>
4.43348

> <i_epik_Tot_Q>
1

> <i_epik_Tot_abs_Q>
1

> <r_epik_Metal_State_Penalty>
6.36664

> <b_epik_Metal_Only>
0

> <s_lp_Force_Field>
OPLS_2005

> <r_lp_Energy>
25.0693

> <b_lp_Chiralities_Consistent>
1

> <s_lp_Variant>
AV-unprocessed.smi:1885-4

> <Gold.Version>
5.8.1

> <Gold.Id.Protein>
6NUR|6NUR_protein|mol2

> <Gold.PLP.Fitness>
53.4281

> <Gold.PLP.PLP>
-49.5341

> <Gold.PLP.part.hbond>
-1.0000

> <Gold.PLP.part.metal>
0.0000

> <Gold.PLP.part.buried>
-7.0215

> <Gold.PLP.part.nonpolar>
-41.7477

> <Gold.PLP.part.repulsive>
0.7907

> <Gold.PLP.ligand.clash>
0.0000

> <Gold.PLP.ligand.torsion>
1.1515

> <Gold.PLP.Chemscore.Hbond>
2.0000

> <Gold.PLP.Chemscore.CHOScore>
0.0000

> <Gold.PLP.Chemscore.Metal>
0.0000

> <Gold.Chemscore.Hbonds>
donor molecule, donor type, donor heavy atom, donor atom, acceptor molecule, acceptor atom, score
      L1  H    15    44       P1  8028  1.82

> <Gold.PLP.Chemscore.Internal.Correction>
0.1971

> <Gold.Rescore>
     Score         DG    S(hbond)    S(metal)    S(lipo)     H(rot)  DE(clash)    DE(int)     intcor
     13.17     -14.53       1.00        0.00     115.15       3.03       0.17       1.19       ----

> <Gold.Chemscore.Fitness>
13.1702

> <Gold.Chemscore.DG>
-14.5266

> <Gold.Chemscore.ZeroCoef>
-5.4800

> <Gold.Chemscore.Hbond>
0.9955

> <Gold.Chemscore.Metal>
0.0000

> <Gold.Chemscore.Lipo>
115.1532

> <Gold.Chemscore.Internal_Hbond>
0.0000

> <Gold.Chemscore.DEClash>
0.1702

> <Gold.Chemscore.DEInternal>
1.1863

> <Gold.Chemscore.Rot>
3.0278

> <Gold.Chemscore.Internal.Correction>
   9.000000E+99

> <Gold.Chemscore.Hbonds>
donor molecule, donor type, donor heavy atom, donor atom, acceptor molecule, acceptor atom, score
      L1  H    15    44       P1  8028  0.87

> <Gold.Chemscore.Hbond.Weighted>
-3.3249

> <Gold.Chemscore.Metal.Weighted>
-0.0000

> <Gold.Chemscore.Lipo.Weighted>
-13.4729

> <Gold.Chemscore.Internal_Hbond.Weighted>
0.0000

> <Gold.Chemscore.DEClash.Weighted>
0.1702

> <Gold.Chemscore.DEInternal.Weighted>
1.1863

> <Gold.Chemscore.Rot.Weighted>
7.7512

> <Gold.Chemscore.Internal.Correction.Weighted>
   9.000000E+99

> <Gold.Protein.RotatedTorsions>
[ 6907 6896 6895 6894 ] final   -8.36 input  -60.11 | X-H torsion
[ 7974 7965 7964 7962 ] final   71.57 input  175.53 | X-H torsion
[ 8008 7997 7996 7995 ] final  -19.20 input   59.86 | X-H torsion
[ 10167 10162 10161 10158 ] final  -34.09 input  -65.29 | X-H torsion
[ 10718 10713 10712 10709 ] final   -8.08 input   66.30 | X-H torsion
[ 10763 10752 10751 10750 ] final  -48.22 input  -60.55 | X-H torsion
[ 11005 11000 10999 10996 ] final   97.86 input  -57.11 | X-H torsion

> <Gold.Protein.ActiveResidues>
 VAL166  LYS551  ARG553  GLY616  TRP617  ASP618  TYR619  PRO620  LYS621  CYS622 
 ASP623  PHE694  ASN695  SER759  ASP760  ASP761  ALA762  ILE779  LEU786  VAL792 
 PHE793  MET794  SER795  GLU796  ALA797  LYS798  CYS799  TRP800  GLU811  SER814 

> <Gold.Protein.RotatedAtoms>
  151.4349  135.1014  159.9652 H   0  0  0  0  0  0  0  0  0  0  0  0  # atno 6907 bound_to 6896
  152.4943  133.8583  159.7247 H   0  0  0  0  0  0  0  0  0  0  0  0  # atno 6908 bound_to 6896
  150.9129  133.6916  159.2878 H   0  0  0  0  0  0  0  0  0  0  0  0  # atno 6909 bound_to 6896
  145.7642  139.2814  143.1358 H   0  0  0  0  0  0  0  0  0  0  0  0  # atno 7974 bound_to 7965
  154.4853  140.2095  155.9669 H   0  0  0  0  0  0  0  0  0  0  0  0  # atno 8008 bound_to 7997
  156.1227  140.3210  155.8200 H   0  0  0  0  0  0  0  0  0  0  0  0  # atno 8009 bound_to 7997
  155.4439  140.0512  157.2998 H   0  0  0  0  0  0  0  0  0  0  0  0  # atno 8010 bound_to 7997
  140.7192  143.3573  151.2034 H   0  0  0  0  0  0  0  0  0  0  0  0  # atno 10167 bound_to 10162
  156.7078  130.5112  149.5900 H   0  0  0  0  0  0  0  0  0  0  0  0  # atno 10718 bound_to 10713
  154.0742  135.6600  153.4828 H   0  0  0  0  0  0  0  0  0  0  0  0  # atno 10763 bound_to 10752
  153.0379  135.5164  154.7537 H   0  0  0  0  0  0  0  0  0  0  0  0  # atno 10764 bound_to 10752
  154.6612  135.3015  154.9831 H   0  0  0  0  0  0  0  0  0  0  0  0  # atno 10765 bound_to 10752
  139.8774  134.9021  156.4370 H   0  0  0  0  0  0  0  0  0  0  0  0  # atno 11005 bound_to 11000
  146.0234  140.8327  142.9912 LP  0  0  0  0  0  0  0  0  0  0  0  0  # atno 17320 bound_to 7965
  144.6824  140.2662  143.7312 LP  0  0  0  0  0  0  0  0  0  0  0  0  # atno 17321 bound_to 7965
  139.7117  143.9366  152.2950 LP  0  0  0  0  0  0  0  0  0  0  0  0  # atno 17342 bound_to 10162
  139.9093  144.6866  150.8579 LP  0  0  0  0  0  0  0  0  0  0  0  0  # atno 17343 bound_to 10162
  156.1683  130.6420  151.0805 LP  0  0  0  0  0  0  0  0  0  0  0  0  # atno 17370 bound_to 10713
  157.6948  131.0798  150.7001 LP  0  0  0  0  0  0  0  0  0  0  0  0  # atno 17371 bound_to 10713
  140.9026  133.7768  155.9698 LP  0  0  0  0  0  0  0  0  0  0  0  0  # atno 17394 bound_to 11000
  140.8634  134.2813  157.5224 LP  0  0  0  0  0  0  0  0  0  0  0  0  # atno 17395 bound_to 11000

$$$$
