AV-unprocessed.smi:1073|AV-procd|sdf|4690|dock5
  -GOLD-   22720 3213D 1   1.00000     0.00000
 Structure written by MMmdl.
 44 44  0  0  0  0  0  0  0  0  1 V2000
  148.9458  140.1990  153.9988 C   0  0  0  0  0  0  0  0  0  0  0  0
  149.2052  140.9342  155.2269 N   0  0  0  0  0  0  0  0  0  0  0  0
  150.4171  141.0713  155.7835 C   0  0  0  0  0  0  0  0  0  0  0  0
  151.4373  140.5728  155.3050 O   0  0  0  0  0  0  0  0  0  0  0  0
  150.4780  141.8822  157.0895 C   0  0  1  0  0  0  0  0  0  0  0  0
  151.6317  142.9055  156.9609 C   0  0  0  0  0  0  0  0  0  0  0  0
  151.8430  143.8238  158.1872 C   0  0  0  0  0  0  0  0  0  0  0  0
  152.7427  145.0134  157.8191 C   0  0  0  0  0  0  0  0  0  0  0  0
  152.4196  143.0705  159.3974 C   0  0  0  0  0  0  0  0  0  0  0  0
  149.2238  142.6079  157.2924 N   0  0  0  0  0  0  0  0  0  0  0  0
  148.1201  142.1033  157.8654 C   0  0  0  0  0  0  0  0  0  0  0  0
  148.0440  140.9435  158.2736 O   0  0  0  0  0  0  0  0  0  0  0  0
  146.9253  143.0612  157.9756 C   0  0  0  0  0  0  0  0  0  0  0  0
  146.6744  143.5299  159.3490 N   0  0  0  0  0  0  0  0  0  0  0  0
  145.3555  143.4220  159.8324 C   0  0  0  0  0  0  0  0  0  0  0  0
  144.9921  143.8217  161.0662 C   0  0  0  0  0  0  0  0  0  0  0  0
  143.5737  143.6397  161.5840 C   0  0  0  0  0  0  0  0  0  0  0  0
  143.5016  143.9118  162.8871 F   0  0  0  0  0  0  0  0  0  0  0  0
  142.7487  144.4661  160.9424 F   0  0  0  0  0  0  0  0  0  0  0  0
  143.1442  142.3918  161.3923 F   0  0  0  0  0  0  0  0  0  0  0  0
  146.0464  144.3494  161.9098 C   0  0  0  0  0  0  0  0  0  0  0  0
  147.3152  144.4484  161.4675 C   0  0  0  0  0  0  0  0  0  0  0  0
  147.6905  144.0289  160.1151 C   0  0  0  0  0  0  0  0  0  0  0  0
  148.8454  144.1186  159.6978 O   0  0  0  0  0  0  0  0  0  0  0  0
  147.8886  140.2650  153.7424 H   0  0  0  0  0  0  0  0  0  0  0  0
  149.2031  139.1457  154.1159 H   0  0  0  0  0  0  0  0  0  0  0  0
  149.5238  140.6095  153.1700 H   0  0  0  0  0  0  0  0  0  0  0  0
  148.4162  141.3727  155.6796 H   0  0  0  0  0  0  0  0  0  0  0  0
  150.6614  141.2072  157.9271 H   0  0  0  0  0  0  0  0  0  0  0  0
  152.5645  142.3752  156.7604 H   0  0  0  0  0  0  0  0  0  0  0  0
  151.4555  143.5329  156.0848 H   0  0  0  0  0  0  0  0  0  0  0  0
  150.8789  144.2381  158.4834 H   0  0  0  0  0  0  0  0  0  0  0  0
  153.7353  144.6807  157.5138 H   0  0  0  0  0  0  0  0  0  0  0  0
  152.8649  145.6918  158.6641 H   0  0  0  0  0  0  0  0  0  0  0  0
  152.3175  145.5894  156.9967 H   0  0  0  0  0  0  0  0  0  0  0  0
  153.3660  142.5882  159.1510 H   0  0  0  0  0  0  0  0  0  0  0  0
  151.7348  142.3030  159.7573 H   0  0  0  0  0  0  0  0  0  0  0  0
  152.6009  143.7505  160.2304 H   0  0  0  0  0  0  0  0  0  0  0  0
  149.1969  143.5647  156.9712 H   0  0  0  0  0  0  0  0  0  0  0  0
  147.0866  143.9137  157.3133 H   0  0  0  0  0  0  0  0  0  0  0  0
  146.0456  142.5541  157.5768 H   0  0  0  0  0  0  0  0  0  0  0  0
  144.6565  142.9828  159.1355 H   0  0  0  0  0  0  0  0  0  0  0  0
  145.8145  144.6732  162.9138 H   0  0  0  0  0  0  0  0  0  0  0  0
  148.0748  144.8466  162.1242 H   0  0  0  0  0  0  0  0  0  0  0  0
  1  2  1  0  0  0  0
  1 25  1  0  0  0  0
  1 26  1  0  0  0  0
  1 27  1  0  0  0  0
  2  3  1  0  0  0  0
  2 28  1  0  0  0  0
  3  4  2  0  0  0  0
  3  5  1  0  0  0  0
  5  6  1  0  0  0  0
  5 10  1  0  0  0  0
  5 29  1  0  0  0  0
  6  7  1  0  0  0  0
  6 30  1  0  0  0  0
  6 31  1  0  0  0  0
  7  8  1  0  0  0  0
  7  9  1  0  0  0  0
  7 32  1  0  0  0  0
  8 33  1  0  0  0  0
  8 34  1  0  0  0  0
  8 35  1  0  0  0  0
  9 36  1  0  0  0  0
  9 37  1  0  0  0  0
  9 38  1  0  0  0  0
 10 11  1  0  0  0  0
 10 39  1  0  0  0  0
 11 12  2  0  0  0  0
 11 13  1  0  0  0  0
 13 14  1  0  0  0  0
 13 40  1  0  0  0  0
 13 41  1  0  0  0  0
 14 23  1  0  0  0  0
 14 15  1  0  0  0  0
 15 16  2  0  0  0  0
 15 42  1  0  0  0  0
 16 17  1  0  0  0  0
 16 21  1  0  0  0  0
 17 18  1  0  0  0  0
 17 19  1  0  0  0  0
 17 20  1  0  0  0  0
 21 22  2  0  0  0  0
 21 43  1  0  0  0  0
 22 23  1  0  0  0  0
 22 44  1  0  0  0  0
 23 24  2  0  0  0  0
M  END
> <s_m_source_file>
AV-unprocessed.smi

> <i_m_source_file_index>
1073

> <i_lp_mmshare_version>
43012

> <i_f3d_flags>
0

> <s_epik_input>
W0NIM11bTkhdQyg9TylbQ0BIXShbQ0gyXVtDSF0oW0NIM10pW0NIM10pW05IXUMoPU8pW0NIMl1uMVtjSF1jKEMoRikoRilGKVtjSF1bY0hdYzE9Tw==

> <s_epik_cmdline>
J2VwaWtfcHl0aG9uJywgJy1waCcsICc3LjAnLCAnLXRuJywgJzgnLCAnLW1hJywgJzIwMCcsICctbWV0YWxfYmluZGluZycsICctaW1hZScsICc8aW5maWxlLm1hZT4nLCAnLW9tYWUnLCAnPG91dGZpbGUubWFlPic=

> <r_lp_tautomer_probability>
1

> <r_epik_Ionization_Penalty>
7.02352e-08

> <r_epik_Ionization_Penalty_Charging>
1.57869e-08

> <r_epik_Ionization_Penalty_Neutral>
5.44484e-08

> <r_epik_State_Penalty>
-0

> <r_epik_Charging_Adjusted_Penalty>
1.57869e-08

> <i_epik_Tot_Q>
0

> <i_epik_Tot_abs_Q>
0

> <r_epik_Metal_State_Penalty>
-0

> <b_epik_Metal_Only>
0

> <s_lp_Force_Field>
OPLS_2005

> <r_lp_Energy>
17.6469

> <b_lp_Chiralities_Consistent>
1

> <s_lp_Variant>
AV-unprocessed.smi:1073-2

> <Gold.Version>
5.8.1

> <Gold.Id.Protein>
6NUR|6NUR_protein|mol2

> <Gold.PLP.Fitness>
45.4282

> <Gold.PLP.PLP>
-41.6318

> <Gold.PLP.part.hbond>
-3.3853

> <Gold.PLP.part.metal>
0.0000

> <Gold.PLP.part.buried>
-4.0564

> <Gold.PLP.part.nonpolar>
-34.3683

> <Gold.PLP.part.repulsive>
0.3279

> <Gold.PLP.ligand.clash>
0.0000

> <Gold.PLP.ligand.torsion>
1.1329

> <Gold.PLP.Chemscore.Hbond>
1.9600

> <Gold.PLP.Chemscore.CHOScore>
0.0000

> <Gold.PLP.Chemscore.Metal>
0.0000

> <Gold.Chemscore.Hbonds>
donor molecule, donor type, donor heavy atom, donor atom, acceptor molecule, acceptor atom, score
      L1  H    10    39       P1  8028  0.99
      P1  H  7989  7998       L1     4  0.83

> <Gold.PLP.Chemscore.Internal.Correction>
0.1822

> <Gold.Rescore>
     Score         DG    S(hbond)    S(metal)    S(lipo)     H(rot)  DE(clash)    DE(int)     intcor
     10.75     -16.09       1.95        0.00      90.09       2.51       2.46       2.88       ----

> <Gold.Chemscore.Fitness>
10.7529

> <Gold.Chemscore.DG>
-16.0932

> <Gold.Chemscore.ZeroCoef>
-5.4800

> <Gold.Chemscore.Hbond>
1.9493

> <Gold.Chemscore.Metal>
0.0000

> <Gold.Chemscore.Lipo>
90.0898

> <Gold.Chemscore.Internal_Hbond>
0.0000

> <Gold.Chemscore.DEClash>
2.4630

> <Gold.Chemscore.DEInternal>
2.8773

> <Gold.Chemscore.Rot>
2.5149

> <Gold.Chemscore.Internal.Correction>
   9.000000E+99

> <Gold.Chemscore.Hbonds>
donor molecule, donor type, donor heavy atom, donor atom, acceptor molecule, acceptor atom, score
      L1  H    10    39       P1  8028  0.74
      P1  H  7989  7998       L1     4  0.72

> <Gold.Chemscore.Hbond.Weighted>
-6.5108

> <Gold.Chemscore.Metal.Weighted>
-0.0000

> <Gold.Chemscore.Lipo.Weighted>
-10.5405

> <Gold.Chemscore.Internal_Hbond.Weighted>
0.0000

> <Gold.Chemscore.DEClash.Weighted>
2.4630

> <Gold.Chemscore.DEInternal.Weighted>
2.8773

> <Gold.Chemscore.Rot.Weighted>
6.4381

> <Gold.Chemscore.Internal.Correction.Weighted>
   9.000000E+99

> <Gold.Protein.RotatedTorsions>
[ 6907 6896 6895 6894 ] final -135.38 input  -60.11 | X-H torsion
[ 7974 7965 7964 7962 ] final   87.73 input  175.53 | X-H torsion
[ 8008 7997 7996 7995 ] final  142.62 input   59.86 | X-H torsion
[ 10167 10162 10161 10158 ] final  167.74 input  -65.29 | X-H torsion
[ 10718 10713 10712 10709 ] final  -12.50 input   66.30 | X-H torsion
[ 10763 10752 10751 10750 ] final -165.67 input  -60.55 | X-H torsion
[ 11005 11000 10999 10996 ] final   21.20 input  -57.11 | X-H torsion

> <Gold.Protein.ActiveResidues>
 VAL166  LYS551  ARG553  GLY616  TRP617  ASP618  TYR619  PRO620  LYS621  CYS622 
 ASP623  PHE694  ASN695  SER759  ASP760  ASP761  ALA762  ILE779  LEU786  VAL792 
 PHE793  MET794  SER795  GLU796  ALA797  LYS798  CYS799  TRP800  GLU811  SER814 

> <Gold.Protein.RotatedAtoms>
  150.9971  133.6092  159.2699 H   0  0  0  0  0  0  0  0  0  0  0  0  # atno 6907 bound_to 6896
  151.3291  135.0836  159.9342 H   0  0  0  0  0  0  0  0  0  0  0  0  # atno 6908 bound_to 6896
  152.5263  133.9604  159.7769 H   0  0  0  0  0  0  0  0  0  0  0  0  # atno 6909 bound_to 6896
  145.5550  139.2299  143.2491 H   0  0  0  0  0  0  0  0  0  0  0  0  # atno 7974 bound_to 7965
  156.2946  140.2284  156.4757 H   0  0  0  0  0  0  0  0  0  0  0  0  # atno 8008 bound_to 7997
  154.7897  140.0455  157.1212 H   0  0  0  0  0  0  0  0  0  0  0  0  # atno 8009 bound_to 7997
  154.9660  140.3060  155.5012 H   0  0  0  0  0  0  0  0  0  0  0  0  # atno 8010 bound_to 7997
  139.4952  144.3889  151.9539 H   0  0  0  0  0  0  0  0  0  0  0  0  # atno 10167 bound_to 10162
  156.6438  130.4935  149.6086 H   0  0  0  0  0  0  0  0  0  0  0  0  # atno 10718 bound_to 10713
  154.6909  135.2970  154.9481 H   0  0  0  0  0  0  0  0  0  0  0  0  # atno 10763 bound_to 10752
  154.0445  135.6653  153.4797 H   0  0  0  0  0  0  0  0  0  0  0  0  # atno 10764 bound_to 10752
  153.0611  135.5115  154.8000 H   0  0  0  0  0  0  0  0  0  0  0  0  # atno 10765 bound_to 10752
  140.3942  134.1787  155.7663 H   0  0  0  0  0  0  0  0  0  0  0  0  # atno 11005 bound_to 11000
  146.1890  140.6374  142.9154 LP  0  0  0  0  0  0  0  0  0  0  0  0  # atno 17320 bound_to 7965
  144.7510  140.5191  143.6801 LP  0  0  0  0  0  0  0  0  0  0  0  0  # atno 17321 bound_to 7965
  140.3326  144.3298  150.5984 LP  0  0  0  0  0  0  0  0  0  0  0  0  # atno 17342 bound_to 10162
  140.5632  143.2189  151.7729 LP  0  0  0  0  0  0  0  0  0  0  0  0  # atno 17343 bound_to 10162
  156.2138  130.6695  151.1297 LP  0  0  0  0  0  0  0  0  0  0  0  0  # atno 17370 bound_to 10713
  157.7163  131.0708  150.6315 LP  0  0  0  0  0  0  0  0  0  0  0  0  # atno 17371 bound_to 10713
  141.1880  133.8269  157.1011 LP  0  0  0  0  0  0  0  0  0  0  0  0  # atno 17394 bound_to 11000
  140.0384  134.9867  157.0915 LP  0  0  0  0  0  0  0  0  0  0  0  0  # atno 17395 bound_to 11000

$$$$
