AV-unprocessed.smi:675|AV-procd|sdf|3306|dock3
  -GOLD-   22720 0263D 1   1.00000     0.00000
 Structure written by MMmdl.
 28 29  0  0  0  0  0  0  0  0  2 V2000
  151.1956  132.6804  157.4274 O   0  0  0  0  0  0  0  0  0  0  0  0
  150.5498  132.7259  156.3813 C   0  0  0  0  0  0  0  0  0  0  0  0
  150.1185  131.6049  155.7322 N   0  5  0  0  0  0  0  0  0  0  0  0
  149.3993  131.6350  154.5677 C   0  0  0  0  0  0  0  0  0  0  0  0
  149.0237  130.6085  154.0015 O   0  0  0  0  0  0  0  0  0  0  0  0
  149.0890  132.8463  154.0180 N   0  0  0  0  0  0  0  0  0  0  0  0
  148.3306  132.9780  152.7655 C   0  0  0  0  0  0  0  0  0  0  0  0
  146.9418  133.6124  152.9949 C   0  0  1  0  0  0  0  0  0  0  0  0
  147.0931  135.0154  153.0965 O   0  0  0  0  0  0  0  0  0  0  0  0
  145.9772  133.2242  151.8750 C   0  0  0  0  0  0  0  0  0  0  0  0
  145.8772  131.8733  151.4664 C   0  0  0  0  0  0  0  0  0  0  0  0
  144.9886  131.4959  150.4422 C   0  0  0  0  0  0  0  0  0  0  0  0
  144.1833  132.4650  149.8180 C   0  0  0  0  0  0  0  0  0  0  0  0
  144.2637  133.8093  150.2248 C   0  0  0  0  0  0  0  0  0  0  0  0
  145.1513  134.1935  151.2503 C   0  0  0  0  0  0  0  0  0  0  0  0
  145.1877  135.8569  151.7228 Cl  0  0  0  0  0  0  0  0  0  0  0  0
  149.5105  134.0311  154.6458 C   0  0  0  0  0  0  0  0  0  0  0  0
  150.2198  134.0213  155.7906 C   0  0  0  0  0  0  0  0  0  0  0  0
  150.7268  135.4949  156.5368 Cl  0  0  0  0  0  0  0  0  0  0  0  0
  148.8836  133.5101  151.9892 H   0  0  0  0  0  0  0  0  0  0  0  0
  148.2006  131.9713  152.3646 H   0  0  0  0  0  0  0  0  0  0  0  0
  146.5312  133.2829  153.9488 H   0  0  0  0  0  0  0  0  0  0  0  0
  147.9292  135.2549  152.7280 H   0  0  0  0  0  0  0  0  0  0  0  0
  146.4802  131.1127  151.9402 H   0  0  0  0  0  0  0  0  0  0  0  0
  144.9236  130.4617  150.1378 H   0  0  0  0  0  0  0  0  0  0  0  0
  143.5003  132.1771  149.0326 H   0  0  0  0  0  0  0  0  0  0  0  0
  143.6370  134.5495  149.7494 H   0  0  0  0  0  0  0  0  0  0  0  0
  149.2265  134.9416  154.1386 H   0  0  0  0  0  0  0  0  0  0  0  0
  1  2  2  0  0  0  0
  2 18  1  0  0  0  0
  2  3  1  0  0  0  0
  3  4  1  0  0  0  0
  4  5  2  0  0  0  0
  4  6  1  0  0  0  0
  6  7  1  0  0  0  0
  6 17  1  0  0  0  0
  7  8  1  0  0  0  0
  7 20  1  0  0  0  0
  7 21  1  0  0  0  0
  8  9  1  0  0  0  0
  8 10  1  0  0  0  0
  8 22  1  0  0  0  0
  9 23  1  0  0  0  0
 10 15  1  0  0  0  0
 10 11  2  0  0  0  0
 11 12  1  0  0  0  0
 11 24  1  0  0  0  0
 12 13  2  0  0  0  0
 12 25  1  0  0  0  0
 13 14  1  0  0  0  0
 13 26  1  0  0  0  0
 14 15  2  0  0  0  0
 14 27  1  0  0  0  0
 15 16  1  0  0  0  0
 17 18  2  0  0  0  0
 17 28  1  0  0  0  0
 18 19  1  0  0  0  0
M  CHG  1   3  -1
M  END
> <s_m_source_file>
AV-unprocessed.smi

> <i_m_source_file_index>
675

> <i_lp_mmshare_version>
43012

> <i_f3d_flags>
0

> <s_epik_input>
Tz1jMVtuSF1jKD1PKW4oW2NIXWMxQ2wpW0NIMl1bQ0BIXShbT0hdKWMyW2NIXVtjSF1bY0hdW2NIXWMyQ2w=

> <s_epik_cmdline>
J2VwaWtfcHl0aG9uJywgJy1waCcsICc3LjAnLCAnLXRuJywgJzgnLCAnLW1hJywgJzIwMCcsICctbWV0YWxfYmluZGluZycsICctaW1hZScsICc8aW5maWxlLm1hZT4nLCAnLW9tYWUnLCAnPG91dGZpbGUubWFlPic=

> <r_epik_Ionization_Penalty>
1.79791

> <r_epik_Ionization_Penalty_Charging>
3.23819e-08

> <r_epik_Ionization_Penalty_Neutral>
1.79791

> <r_epik_State_Penalty>
1.91135

> <r_epik_Charging_Adjusted_Penalty>
1.91135

> <i_epik_Tot_Q>
-1

> <i_epik_Tot_abs_Q>
1

> <r_epik_Metal_State_Penalty>
0.014155

> <b_epik_Metal_Only>
0

> <s_lp_Force_Field>
OPLS_2005

> <r_lp_Energy>
23.2972

> <b_lp_Chiralities_Consistent>
1

> <s_lp_Variant>
AV-unprocessed.smi:675-4

> <Gold.Version>
5.8.1

> <Gold.Id.Protein>
6NUR|6NUR_protein|mol2

> <Gold.PLP.Fitness>
45.5406

> <Gold.PLP.PLP>
-37.8458

> <Gold.PLP.part.hbond>
-1.6579

> <Gold.PLP.part.metal>
0.0000

> <Gold.PLP.part.buried>
-6.6214

> <Gold.PLP.part.nonpolar>
-31.2016

> <Gold.PLP.part.repulsive>
0.0854

> <Gold.PLP.ligand.clash>
0.1931

> <Gold.PLP.ligand.torsion>
0.5507

> <Gold.PLP.Chemscore.Hbond>
1.9920

> <Gold.PLP.Chemscore.CHOScore>
1.0000

> <Gold.PLP.Chemscore.Metal>
0.0000

> <Gold.Chemscore.Hbonds>
donor molecule, donor type, donor heavy atom, donor atom, acceptor molecule, acceptor atom, score
      L1  H     9    23       P1  7948  1.00
      P1  H  6896  6907       L1     1  1.00
      L1  C    17    28       P1  7948  0.84

> <Gold.PLP.Chemscore.Internal.Correction>
0.0133

> <Gold.Rescore>
     Score         DG    S(hbond)    S(metal)    S(lipo)     H(rot)  DE(clash)    DE(int)     intcor
     13.88     -16.38       1.96        0.00      83.82       2.13       0.04       2.45       ----

> <Gold.Chemscore.Fitness>
13.8823

> <Gold.Chemscore.DG>
-16.3776

> <Gold.Chemscore.ZeroCoef>
-5.4800

> <Gold.Chemscore.Hbond>
1.9575

> <Gold.Chemscore.Metal>
0.0000

> <Gold.Chemscore.Lipo>
83.8178

> <Gold.Chemscore.Internal_Hbond>
0.0000

> <Gold.Chemscore.DEClash>
0.0440

> <Gold.Chemscore.DEInternal>
2.4512

> <Gold.Chemscore.Rot>
2.1278

> <Gold.Chemscore.Internal.Correction>
   9.000000E+99

> <Gold.Chemscore.Hbonds>
donor molecule, donor type, donor heavy atom, donor atom, acceptor molecule, acceptor atom, score
      L1  H     9    23       P1  7948  0.97
      P1  H  6896  6907       L1     1  0.96

> <Gold.Chemscore.Hbond.Weighted>
-6.5379

> <Gold.Chemscore.Metal.Weighted>
-0.0000

> <Gold.Chemscore.Lipo.Weighted>
-9.8067

> <Gold.Chemscore.Internal_Hbond.Weighted>
0.0000

> <Gold.Chemscore.DEClash.Weighted>
0.0440

> <Gold.Chemscore.DEInternal.Weighted>
2.4512

> <Gold.Chemscore.Rot.Weighted>
5.4470

> <Gold.Chemscore.Internal.Correction.Weighted>
   9.000000E+99

> <Gold.Protein.RotatedTorsions>
[ 6907 6896 6895 6894 ] final -169.47 input  -60.11 | X-H torsion
[ 7974 7965 7964 7962 ] final  165.17 input  175.53 | X-H torsion
[ 8008 7997 7996 7995 ] final  -11.66 input   59.86 | X-H torsion
[ 10167 10162 10161 10158 ] final -139.69 input  -65.29 | X-H torsion
[ 10718 10713 10712 10709 ] final  175.64 input   66.30 | X-H torsion
[ 10763 10752 10751 10750 ] final  -35.69 input  -60.55 | X-H torsion
[ 11005 11000 10999 10996 ] final -129.38 input  -57.11 | X-H torsion

> <Gold.Protein.ActiveResidues>
 VAL166  LYS551  ARG553  GLY616  TRP617  ASP618  TYR619  PRO620  LYS621  CYS622 
 ASP623  PHE694  ASN695  SER759  ASP760  ASP761  ALA762  ILE779  LEU786  VAL792 
 PHE793  MET794  SER795  GLU796  ALA797  LYS798  CYS799  TRP800  GLU811  SER814 

> <Gold.Protein.RotatedAtoms>
  151.4921  133.3522  159.2854 H   0  0  0  0  0  0  0  0  0  0  0  0  # atno 6907 bound_to 6896
  150.8828  134.8223  159.7248 H   0  0  0  0  0  0  0  0  0  0  0  0  # atno 6908 bound_to 6896
  152.4773  134.4821  159.9720 H   0  0  0  0  0  0  0  0  0  0  0  0  # atno 6909 bound_to 6896
  144.7514  139.8431  143.6365 H   0  0  0  0  0  0  0  0  0  0  0  0  # atno 7974 bound_to 7965
  154.5445  140.2296  155.8586 H   0  0  0  0  0  0  0  0  0  0  0  0  # atno 8008 bound_to 7997
  156.1890  140.3082  155.9256 H   0  0  0  0  0  0  0  0  0  0  0  0  # atno 8009 bound_to 7997
  155.3191  140.0439  157.3029 H   0  0  0  0  0  0  0  0  0  0  0  0  # atno 8010 bound_to 7997
  139.8354  143.7391  152.2665 H   0  0  0  0  0  0  0  0  0  0  0  0  # atno 10167 bound_to 10162
  156.9318  130.9973  151.2985 H   0  0  0  0  0  0  0  0  0  0  0  0  # atno 10718 bound_to 10713
  153.8673  135.6834  153.4777 H   0  0  0  0  0  0  0  0  0  0  0  0  # atno 10763 bound_to 10752
  153.1307  135.4699  154.9342 H   0  0  0  0  0  0  0  0  0  0  0  0  # atno 10764 bound_to 10752
  154.7730  135.3244  154.8100 H   0  0  0  0  0  0  0  0  0  0  0  0  # atno 10765 bound_to 10752
  140.9436  134.1160  157.4128 H   0  0  0  0  0  0  0  0  0  0  0  0  # atno 11005 bound_to 11000
  146.1468  139.4540  143.0074 LP  0  0  0  0  0  0  0  0  0  0  0  0  # atno 17320 bound_to 7965
  145.6932  141.0158  143.1544 LP  0  0  0  0  0  0  0  0  0  0  0  0  # atno 17321 bound_to 7965
  139.7612  144.7506  151.0361 LP  0  0  0  0  0  0  0  0  0  0  0  0  # atno 17342 bound_to 10162
  140.7803  143.4749  151.0096 LP  0  0  0  0  0  0  0  0  0  0  0  0  # atno 17343 bound_to 10162
  157.5842  130.8397  149.8565 LP  0  0  0  0  0  0  0  0  0  0  0  0  # atno 17370 bound_to 10713
  156.0443  130.3731  150.1355 LP  0  0  0  0  0  0  0  0  0  0  0  0  # atno 17371 bound_to 10713
  139.8827  135.0044  156.6249 LP  0  0  0  0  0  0  0  0  0  0  0  0  # atno 17394 bound_to 11000
  140.7700  133.8746  155.8484 LP  0  0  0  0  0  0  0  0  0  0  0  0  # atno 17395 bound_to 11000

$$$$
