AV-unprocessed.smi:2510|AV-procd|sdf|9881|dock2
  -GOLD-   2272013513D 1   1.00000     0.00000
 Structure written by MMmdl.
 48 49  0  0  0  0  0  0  0  0  1 V2000
  150.5463  137.9158  157.9812 C   0  0  0  0  0  0  0  0  0  0  0  0
  150.3160  138.8654  156.7938 C   0  0  0  0  0  0  0  0  0  0  0  0
  150.1663  138.1698  155.4184 C   0  0  0  0  0  0  0  0  0  0  0  0
  151.4732  137.4060  155.0902 C   0  0  0  0  0  0  0  0  0  0  0  0
  152.7049  138.2942  154.8561 C   0  0  0  0  0  0  0  0  0  0  0  0
  148.8128  137.4113  155.2599 C   0  0  2  0  0  0  0  0  0  0  0  0
  148.8799  136.2650  154.3538 N   0  0  0  0  0  0  0  0  0  0  0  0
  148.8108  134.9816  154.7383 C   0  0  0  0  0  0  0  0  0  0  0  0
  148.5978  134.6305  155.8984 O   0  0  0  0  0  0  0  0  0  0  0  0
  149.0484  133.9342  153.6504 C   0  0  0  0  0  0  0  0  0  0  0  0
  147.8255  133.7687  152.8052 C   0  0  0  0  0  0  0  0  0  0  0  0
  146.5896  134.3476  152.8836 C   0  0  0  0  0  0  0  0  0  0  0  0
  145.8758  133.8062  151.7748 C   0  0  0  0  0  0  0  0  0  0  0  0
  144.4645  134.0918  151.3540 C   0  0  0  0  0  0  0  0  0  0  0  0
  146.6058  132.9550  151.0699 N   0  0  0  0  0  0  0  0  0  0  0  0
  147.7905  132.9383  151.7077 N   0  0  0  0  0  0  0  0  0  0  0  0
  148.2112  138.6515  154.5739 C   0  0  2  0  0  0  0  0  0  0  0  0
  147.2046  138.4986  153.4363 C   0  0  0  0  0  0  0  0  0  0  0  0
  149.6552  139.0752  154.2700 C   0  0  1  0  0  0  0  0  0  0  0  0
  149.9394  140.4500  154.4841 O   0  0  0  0  0  0  0  0  0  0  0  0
  148.8473  141.2985  154.1774 C   0  0  0  0  0  0  0  0  0  0  0  0
  148.5595  132.3702  151.3818 H   0  0  0  0  0  0  0  0  0  0  0  0
  150.5212  138.4677  158.9208 H   0  0  0  0  0  0  0  0  0  0  0  0
  151.5171  137.4244  157.9250 H   0  0  0  0  0  0  0  0  0  0  0  0
  149.7801  137.1427  158.0345 H   0  0  0  0  0  0  0  0  0  0  0  0
  149.4173  139.4422  157.0131 H   0  0  0  0  0  0  0  0  0  0  0  0
  151.1127  139.6083  156.7707 H   0  0  0  0  0  0  0  0  0  0  0  0
  151.6959  136.6647  155.8571 H   0  0  0  0  0  0  0  0  0  0  0  0
  151.3436  136.8274  154.1759 H   0  0  0  0  0  0  0  0  0  0  0  0
  153.5441  137.6953  154.5020 H   0  0  0  0  0  0  0  0  0  0  0  0
  153.0297  138.7909  155.7698 H   0  0  0  0  0  0  0  0  0  0  0  0
  152.5063  139.0589  154.1051 H   0  0  0  0  0  0  0  0  0  0  0  0
  148.3124  137.1893  156.2037 H   0  0  0  0  0  0  0  0  0  0  0  0
  149.0562  136.4610  153.3793 H   0  0  0  0  0  0  0  0  0  0  0  0
  149.8964  134.2311  153.0318 H   0  0  0  0  0  0  0  0  0  0  0  0
  149.3160  132.9857  154.1174 H   0  0  0  0  0  0  0  0  0  0  0  0
  146.2483  135.0613  153.6186 H   0  0  0  0  0  0  0  0  0  0  0  0
  144.0683  134.9645  151.8733 H   0  0  0  0  0  0  0  0  0  0  0  0
  143.8119  133.2476  151.5768 H   0  0  0  0  0  0  0  0  0  0  0  0
  144.4035  134.2888  150.2834 H   0  0  0  0  0  0  0  0  0  0  0  0
  147.8014  139.3034  155.3473 H   0  0  0  0  0  0  0  0  0  0  0  0
  147.6457  138.0067  152.5692 H   0  0  0  0  0  0  0  0  0  0  0  0
  146.8307  139.4673  153.1057 H   0  0  0  0  0  0  0  0  0  0  0  0
  146.3442  137.9077  153.7504 H   0  0  0  0  0  0  0  0  0  0  0  0
  149.9964  138.7217  153.2943 H   0  0  0  0  0  0  0  0  0  0  0  0
  149.1430  142.3378  154.3196 H   0  0  0  0  0  0  0  0  0  0  0  0
  147.9959  141.1023  154.8286 H   0  0  0  0  0  0  0  0  0  0  0  0
  148.5321  141.1779  153.1402 H   0  0  0  0  0  0  0  0  0  0  0  0
  1  2  1  0  0  0  0
  1 23  1  0  0  0  0
  1 24  1  0  0  0  0
  1 25  1  0  0  0  0
  2  3  1  0  0  0  0
  2 26  1  0  0  0  0
  2 27  1  0  0  0  0
  3 19  1  0  0  0  0
  3  4  1  0  0  0  0
  3  6  1  0  0  0  0
  4  5  1  0  0  0  0
  4 28  1  0  0  0  0
  4 29  1  0  0  0  0
  5 30  1  0  0  0  0
  5 31  1  0  0  0  0
  5 32  1  0  0  0  0
  6  7  1  0  0  0  0
  6 17  1  0  0  0  0
  6 33  1  0  0  0  0
  7  8  1  0  0  0  0
  7 34  1  0  0  0  0
  8  9  2  0  0  0  0
  8 10  1  0  0  0  0
 10 35  1  0  0  0  0
 10 36  1  0  0  0  0
 10 11  1  0  0  0  0
 11 16  1  0  0  0  0
 11 12  2  0  0  0  0
 12 13  1  0  0  0  0
 12 37  1  0  0  0  0
 13 14  1  0  0  0  0
 13 15  2  0  0  0  0
 14 38  1  0  0  0  0
 14 39  1  0  0  0  0
 14 40  1  0  0  0  0
 15 16  1  0  0  0  0
 16 22  1  0  0  0  0
 17 18  1  0  0  0  0
 17 19  1  0  0  0  0
 17 41  1  0  0  0  0
 18 42  1  0  0  0  0
 18 43  1  0  0  0  0
 18 44  1  0  0  0  0
 19 20  1  0  0  0  0
 19 45  1  0  0  0  0
 20 21  1  0  0  0  0
 21 46  1  0  0  0  0
 21 47  1  0  0  0  0
 21 48  1  0  0  0  0
M  END
> <s_m_source_file>
AV-unprocessed.smi

> <i_m_source_file_index>
2510

> <i_lp_mmshare_version>
43012

> <i_f3d_flags>
0

> <s_epik_input>
W0NIM11PW0NAQEhdMVtDQEhdKFtDSDNdKVtDQEBIXShDMShbQ0gyXVtDSDNdKVtDSDJdW0NIM10pW05IXUMoPU8pW0NIMl1jMltjSF1jKFtDSDNdKVtuSF1uMg==

> <s_epik_cmdline>
J2VwaWtfcHl0aG9uJywgJy1waCcsICc3LjAnLCAnLXRuJywgJzgnLCAnLW1hJywgJzIwMCcsICctbWV0YWxfYmluZGluZycsICctaW1hZScsICc8aW5maWxlLm1hZT4nLCAnLW9tYWUnLCAnPG91dGZpbGUubWFlPic=

> <r_lp_tautomer_probability>
0.5

> <r_epik_Ionization_Penalty>
0.000134763

> <r_epik_Ionization_Penalty_Charging>
0

> <r_epik_Ionization_Penalty_Neutral>
0.000134763

> <r_epik_State_Penalty>
0.41068

> <r_epik_Charging_Adjusted_Penalty>
0.41068

> <i_epik_Tot_Q>
0

> <i_epik_Tot_abs_Q>
0

> <r_epik_Metal_State_Penalty>
0.410661

> <b_epik_Metal_Only>
0

> <s_lp_Force_Field>
OPLS_2005

> <r_lp_Energy>
24.0531

> <b_lp_Chiralities_Consistent>
1

> <s_lp_Variant>
AV-unprocessed.smi:2510-12

> <Gold.Version>
5.8.1

> <Gold.Id.Protein>
6NUR|6NUR_protein|mol2

> <Gold.PLP.Fitness>
35.1710

> <Gold.PLP.PLP>
-28.5160

> <Gold.PLP.part.hbond>
-3.0000

> <Gold.PLP.part.metal>
0.0000

> <Gold.PLP.part.buried>
-1.8760

> <Gold.PLP.part.nonpolar>
-23.7119

> <Gold.PLP.part.repulsive>
0.3133

> <Gold.PLP.ligand.clash>
0.0000

> <Gold.PLP.ligand.torsion>
1.0987

> <Gold.PLP.Chemscore.Hbond>
2.7600

> <Gold.PLP.Chemscore.CHOScore>
0.0000

> <Gold.PLP.Chemscore.Metal>
0.0000

> <Gold.Chemscore.Hbonds>
donor molecule, donor type, donor heavy atom, donor atom, acceptor molecule, acceptor atom, score
      L1  H     7    34       P1  7948  0.98
      L1  H    16    22       P1 10747  0.88
      P1  H  7989  7998       L1    20  0.86

> <Gold.PLP.Chemscore.Internal.Correction>
0.5723

> <Gold.Rescore>
     Score         DG    S(hbond)    S(metal)    S(lipo)     H(rot)  DE(clash)    DE(int)     intcor
     17.08     -18.36       2.56        0.00      76.58       1.81       0.11       1.18       ----

> <Gold.Chemscore.Fitness>
17.0786

> <Gold.Chemscore.DG>
-18.3647

> <Gold.Chemscore.ZeroCoef>
-5.4800

> <Gold.Chemscore.Hbond>
2.5626

> <Gold.Chemscore.Metal>
0.0000

> <Gold.Chemscore.Lipo>
76.5788

> <Gold.Chemscore.Internal_Hbond>
0.0000

> <Gold.Chemscore.DEClash>
0.1067

> <Gold.Chemscore.DEInternal>
1.1794

> <Gold.Chemscore.Rot>
1.8102

> <Gold.Chemscore.Internal.Correction>
   9.000000E+99

> <Gold.Chemscore.Hbonds>
donor molecule, donor type, donor heavy atom, donor atom, acceptor molecule, acceptor atom, score
      L1  H     7    34       P1  7948  0.89
      L1  H    16    22       P1 10747  0.86
      P1  H  7989  7998       L1    20  0.48

> <Gold.Chemscore.Hbond.Weighted>
-8.5590

> <Gold.Chemscore.Metal.Weighted>
-0.0000

> <Gold.Chemscore.Lipo.Weighted>
-8.9597

> <Gold.Chemscore.Internal_Hbond.Weighted>
0.0000

> <Gold.Chemscore.DEClash.Weighted>
0.1067

> <Gold.Chemscore.DEInternal.Weighted>
1.1794

> <Gold.Chemscore.Rot.Weighted>
4.6341

> <Gold.Chemscore.Internal.Correction.Weighted>
   9.000000E+99

> <Gold.Protein.RotatedTorsions>
[ 6907 6896 6895 6894 ] final   14.74 input  -60.11 | X-H torsion
[ 7974 7965 7964 7962 ] final  148.91 input  175.53 | X-H torsion
[ 8008 7997 7996 7995 ] final   80.46 input   59.86 | X-H torsion
[ 10167 10162 10161 10158 ] final  -98.12 input  -65.29 | X-H torsion
[ 10718 10713 10712 10709 ] final   56.36 input   66.30 | X-H torsion
[ 10763 10752 10751 10750 ] final -177.82 input  -60.55 | X-H torsion
[ 11005 11000 10999 10996 ] final -158.45 input  -57.11 | X-H torsion

> <Gold.Protein.ActiveResidues>
 VAL166  LYS551  ARG553  GLY616  TRP617  ASP618  TYR619  PRO620  LYS621  CYS622 
 ASP623  PHE694  ASN695  SER759  ASP760  ASP761  ALA762  ILE779  LEU786  VAL792 
 PHE793  MET794  SER795  GLU796  ALA797  LYS798  CYS799  TRP800  GLU811  SER814 

> <Gold.Protein.RotatedAtoms>
  151.8071  135.0692  160.0407 H   0  0  0  0  0  0  0  0  0  0  0  0  # atno 6907 bound_to 6896
  152.3047  133.5687  159.5650 H   0  0  0  0  0  0  0  0  0  0  0  0  # atno 6908 bound_to 6896
  150.7290  134.0156  159.3726 H   0  0  0  0  0  0  0  0  0  0  0  0  # atno 6909 bound_to 6896
  144.8478  139.6214  143.5988 H   0  0  0  0  0  0  0  0  0  0  0  0  # atno 7974 bound_to 7965
  155.8837  140.3442  155.5906 H   0  0  0  0  0  0  0  0  0  0  0  0  # atno 8008 bound_to 7997
  155.7690  140.0843  157.2136 H   0  0  0  0  0  0  0  0  0  0  0  0  # atno 8009 bound_to 7997
  154.4027  140.1522  156.2907 H   0  0  0  0  0  0  0  0  0  0  0  0  # atno 8010 bound_to 7997
  140.2762  143.3311  152.0486 H   0  0  0  0  0  0  0  0  0  0  0  0  # atno 10167 bound_to 10162
  157.5424  130.8707  149.8842 H   0  0  0  0  0  0  0  0  0  0  0  0  # atno 10718 bound_to 10713
  154.5553  135.2816  155.0970 H   0  0  0  0  0  0  0  0  0  0  0  0  # atno 10763 bound_to 10752
  154.2400  135.6358  153.5207 H   0  0  0  0  0  0  0  0  0  0  0  0  # atno 10764 bound_to 10752
  153.0014  135.5557  154.6131 H   0  0  0  0  0  0  0  0  0  0  0  0  # atno 10765 bound_to 10752
  140.6535  134.4425  157.5235 H   0  0  0  0  0  0  0  0  0  0  0  0  # atno 11005 bound_to 11000
  146.2759  139.6751  142.9263 LP  0  0  0  0  0  0  0  0  0  0  0  0  # atno 17320 bound_to 7965
  145.4562  141.0431  143.2777 LP  0  0  0  0  0  0  0  0  0  0  0  0  # atno 17321 bound_to 7965
  139.4975  144.6623  151.6437 LP  0  0  0  0  0  0  0  0  0  0  0  0  # atno 17342 bound_to 10162
  140.5849  143.9881  150.6290 LP  0  0  0  0  0  0  0  0  0  0  0  0  # atno 17343 bound_to 10162
  156.0508  130.3718  150.1206 LP  0  0  0  0  0  0  0  0  0  0  0  0  # atno 17370 bound_to 10713
  156.9385  130.9737  151.3520 LP  0  0  0  0  0  0  0  0  0  0  0  0  # atno 17371 bound_to 10713
  139.9037  134.8496  156.1790 LP  0  0  0  0  0  0  0  0  0  0  0  0  # atno 17394 bound_to 11000
  141.0519  133.6884  156.1787 LP  0  0  0  0  0  0  0  0  0  0  0  0  # atno 17395 bound_to 11000

$$$$
