AV-unprocessed.smi:2320|AV-procd|sdf|9280|dock9
  -GOLD-   2272012503D 1   1.00000     0.00000
 Structure written by MMmdl.
 41 42  0  0  0  0  0  0  0  0  1 V2000
  151.4990  145.4499  159.3285 C   0  0  0  0  0  0  0  0  0  0  0  0
  152.1337  144.2264  159.9568 C   0  0  0  0  0  0  0  0  0  0  0  0
  152.6571  143.1971  159.1492 C   0  0  0  0  0  0  0  0  0  0  0  0
  153.2448  142.0639  159.7433 C   0  0  0  0  0  0  0  0  0  0  0  0
  153.3186  141.9393  161.1457 C   0  0  0  0  0  0  0  0  0  0  0  0
  153.9095  140.7967  161.6406 O   0  0  0  0  0  0  0  0  0  0  0  0
  154.8665  140.1269  160.8302 C   0  0  0  0  0  0  0  0  0  0  0  0
  155.1820  138.7626  161.4629 C   0  0  1  0  0  0  0  0  0  0  0  0
  155.9337  139.0123  162.6333 O   0  0  0  0  0  0  0  0  0  0  0  0
  153.9007  137.9851  161.8412 C   0  0  0  0  0  0  0  0  0  0  0  0
  154.2035  136.7042  162.5014 N   0  0  0  0  0  0  0  0  0  0  0  0
  154.2745  136.7281  163.9046 C   0  0  0  0  0  0  0  0  0  0  0  0
  154.5376  135.6640  164.5900 N   0  0  0  0  0  0  0  0  0  0  0  0
  154.7571  134.4494  163.9340 C   0  0  0  0  0  0  0  0  0  0  0  0
  155.0683  133.2659  164.8328 C   0  0  0  0  0  0  0  0  0  0  0  0
  154.6931  134.3565  162.5776 C   0  0  0  0  0  0  0  0  0  0  0  0
  154.9262  133.0611  161.8094 C   0  0  0  0  0  0  0  0  0  0  0  0
  154.3912  135.5591  161.7840 C   0  0  0  0  0  0  0  0  0  0  0  0
  154.3140  135.5446  160.5541 O   0  0  0  0  0  0  0  0  0  0  0  0
  152.7908  142.9788  161.9524 C   0  0  0  0  0  0  0  0  0  0  0  0
  152.2027  144.1129  161.3590 C   0  0  0  0  0  0  0  0  0  0  0  0
  151.5450  145.4078  158.2398 H   0  0  0  0  0  0  0  0  0  0  0  0
  152.0144  146.3532  159.6561 H   0  0  0  0  0  0  0  0  0  0  0  0
  150.4518  145.5250  159.6223 H   0  0  0  0  0  0  0  0  0  0  0  0
  152.6110  143.2714  158.0726 H   0  0  0  0  0  0  0  0  0  0  0  0
  153.6429  141.2806  159.1153 H   0  0  0  0  0  0  0  0  0  0  0  0
  154.4526  139.9833  159.8305 H   0  0  0  0  0  0  0  0  0  0  0  0
  155.7793  140.7184  160.7385 H   0  0  0  0  0  0  0  0  0  0  0  0
  155.7992  138.1880  160.7711 H   0  0  0  0  0  0  0  0  0  0  0  0
  156.1636  139.9288  162.6542 H   0  0  0  0  0  0  0  0  0  0  0  0
  153.2358  138.6078  162.4431 H   0  0  0  0  0  0  0  0  0  0  0  0
  153.3198  137.7802  160.9396 H   0  0  0  0  0  0  0  0  0  0  0  0
  154.0891  137.6994  164.3669 H   0  0  0  0  0  0  0  0  0  0  0  0
  156.0486  132.8529  164.5937 H   0  0  0  0  0  0  0  0  0  0  0  0
  154.3193  132.4836  164.7083 H   0  0  0  0  0  0  0  0  0  0  0  0
  155.0759  133.5561  165.8843 H   0  0  0  0  0  0  0  0  0  0  0  0
  154.0528  132.8201  161.2027 H   0  0  0  0  0  0  0  0  0  0  0  0
  155.1190  132.2068  162.4565 H   0  0  0  0  0  0  0  0  0  0  0  0
  155.7824  133.1690  161.1428 H   0  0  0  0  0  0  0  0  0  0  0  0
  152.8256  142.9316  163.0301 H   0  0  0  0  0  0  0  0  0  0  0  0
  151.8044  144.8981  161.9850 H   0  0  0  0  0  0  0  0  0  0  0  0
  1  2  1  0  0  0  0
  1 22  1  0  0  0  0
  1 23  1  0  0  0  0
  1 24  1  0  0  0  0
  2 21  1  0  0  0  0
  2  3  2  0  0  0  0
  3  4  1  0  0  0  0
  3 25  1  0  0  0  0
  4  5  2  0  0  0  0
  4 26  1  0  0  0  0
  5  6  1  0  0  0  0
  5 20  1  0  0  0  0
  6  7  1  0  0  0  0
  7  8  1  0  0  0  0
  7 27  1  0  0  0  0
  7 28  1  0  0  0  0
  8  9  1  0  0  0  0
  8 10  1  0  0  0  0
  8 29  1  0  0  0  0
  9 30  1  0  0  0  0
 10 11  1  0  0  0  0
 10 31  1  0  0  0  0
 10 32  1  0  0  0  0
 11 18  1  0  0  0  0
 11 12  1  0  0  0  0
 12 13  2  0  0  0  0
 12 33  1  0  0  0  0
 13 14  1  0  0  0  0
 14 15  1  0  0  0  0
 14 16  2  0  0  0  0
 15 34  1  0  0  0  0
 15 35  1  0  0  0  0
 15 36  1  0  0  0  0
 16 17  1  0  0  0  0
 16 18  1  0  0  0  0
 17 37  1  0  0  0  0
 17 38  1  0  0  0  0
 17 39  1  0  0  0  0
 18 19  2  0  0  0  0
 20 21  2  0  0  0  0
 20 40  1  0  0  0  0
 21 41  1  0  0  0  0
M  END
> <s_m_source_file>
AV-unprocessed.smi

> <i_m_source_file_index>
2320

> <i_lp_mmshare_version>
43012

> <i_f3d_flags>
0

> <s_epik_input>
W0NIM11jMVtjSF1bY0hdYyhbY0hdW2NIXTEpT1tDSDJdW0NASF0oW09IXSlbQ0gyXW4yW2NIXW5jKFtDSDNdKWMoW0NIM10pYzI9Tw==

> <s_epik_cmdline>
J2VwaWtfcHl0aG9uJywgJy1waCcsICc3LjAnLCAnLXRuJywgJzgnLCAnLW1hJywgJzIwMCcsICctbWV0YWxfYmluZGluZycsICctaW1hZScsICc8aW5maWxlLm1hZT4nLCAnLW9tYWUnLCAnPG91dGZpbGUubWFlPic=

> <r_lp_tautomer_probability>
1

> <r_epik_Ionization_Penalty>
3.74127e-05

> <r_epik_Ionization_Penalty_Charging>
8.43242e-08

> <r_epik_Ionization_Penalty_Neutral>
3.73284e-05

> <r_epik_State_Penalty>
-0

> <r_epik_Charging_Adjusted_Penalty>
8.43242e-08

> <i_epik_Tot_Q>
0

> <i_epik_Tot_abs_Q>
0

> <r_epik_Metal_State_Penalty>
-0

> <b_epik_Metal_Only>
0

> <s_lp_Force_Field>
OPLS_2005

> <r_lp_Energy>
22.1305

> <b_lp_Chiralities_Consistent>
1

> <s_lp_Variant>
AV-unprocessed.smi:2320-2

> <Gold.Version>
5.8.1

> <Gold.Id.Protein>
6NUR|6NUR_protein|mol2

> <Gold.PLP.Fitness>
50.7428

> <Gold.PLP.PLP>
-49.7404

> <Gold.PLP.part.hbond>
-0.8640

> <Gold.PLP.part.metal>
0.0000

> <Gold.PLP.part.buried>
-5.8065

> <Gold.PLP.part.nonpolar>
-44.7393

> <Gold.PLP.part.repulsive>
0.3017

> <Gold.PLP.ligand.clash>
0.0000

> <Gold.PLP.ligand.torsion>
0.8265

> <Gold.PLP.Chemscore.Hbond>
0.8775

> <Gold.PLP.Chemscore.CHOScore>
0.0000

> <Gold.PLP.Chemscore.Metal>
0.0000

> <Gold.Chemscore.Hbonds>
donor molecule, donor type, donor heavy atom, donor atom, acceptor molecule, acceptor atom, score
      P1  H  6896  6908       L1    19  0.78

> <Gold.PLP.Chemscore.Internal.Correction>
0.0229

> <Gold.Rescore>
     Score         DG    S(hbond)    S(metal)    S(lipo)     H(rot)  DE(clash)    DE(int)     intcor
     16.81     -17.62       0.98        0.00     127.12       2.35       0.14       0.67       ----

> <Gold.Chemscore.Fitness>
16.8093

> <Gold.Chemscore.DG>
-17.6227

> <Gold.Chemscore.ZeroCoef>
-5.4800

> <Gold.Chemscore.Hbond>
0.9829

> <Gold.Chemscore.Metal>
0.0000

> <Gold.Chemscore.Lipo>
127.1216

> <Gold.Chemscore.Internal_Hbond>
0.0000

> <Gold.Chemscore.DEClash>
0.1402

> <Gold.Chemscore.DEInternal>
0.6731

> <Gold.Chemscore.Rot>
2.3490

> <Gold.Chemscore.Internal.Correction>
   9.000000E+99

> <Gold.Chemscore.Hbonds>
donor molecule, donor type, donor heavy atom, donor atom, acceptor molecule, acceptor atom, score
      P1  H  6896  6908       L1    19  0.50

> <Gold.Chemscore.Hbond.Weighted>
-3.2830

> <Gold.Chemscore.Metal.Weighted>
-0.0000

> <Gold.Chemscore.Lipo.Weighted>
-14.8732

> <Gold.Chemscore.Internal_Hbond.Weighted>
0.0000

> <Gold.Chemscore.DEClash.Weighted>
0.1402

> <Gold.Chemscore.DEInternal.Weighted>
0.6731

> <Gold.Chemscore.Rot.Weighted>
6.0136

> <Gold.Chemscore.Internal.Correction.Weighted>
   9.000000E+99

> <Gold.Protein.RotatedTorsions>
[ 6907 6896 6895 6894 ] final  -56.92 input  -60.11 | X-H torsion
[ 7974 7965 7964 7962 ] final   58.29 input  175.53 | X-H torsion
[ 8008 7997 7996 7995 ] final  -49.05 input   59.86 | X-H torsion
[ 10167 10162 10161 10158 ] final  -51.63 input  -65.29 | X-H torsion
[ 10718 10713 10712 10709 ] final  154.15 input   66.30 | X-H torsion
[ 10763 10752 10751 10750 ] final -167.40 input  -60.55 | X-H torsion
[ 11005 11000 10999 10996 ] final  146.12 input  -57.11 | X-H torsion

> <Gold.Protein.ActiveResidues>
 VAL166  LYS551  ARG553  GLY616  TRP617  ASP618  TYR619  PRO620  LYS621  CYS622 
 ASP623  PHE694  ASN695  SER759  ASP760  ASP761  ALA762  ILE779  LEU786  VAL792 
 PHE793  MET794  SER795  GLU796  ALA797  LYS798  CYS799  TRP800  GLU811  SER814 

> <Gold.Protein.RotatedAtoms>
  150.8128  134.7293  159.6702 H   0  0  0  0  0  0  0  0  0  0  0  0  # atno 6907 bound_to 6896
  152.4248  134.5886  159.9977 H   0  0  0  0  0  0  0  0  0  0  0  0  # atno 6908 bound_to 6896
  151.6091  133.3311  159.3099 H   0  0  0  0  0  0  0  0  0  0  0  0  # atno 6909 bound_to 6896
  145.9198  139.3720  143.0485 H   0  0  0  0  0  0  0  0  0  0  0  0  # atno 7974 bound_to 7965
  154.4038  140.1306  156.4439 H   0  0  0  0  0  0  0  0  0  0  0  0  # atno 8008 bound_to 7997
  155.7432  140.3489  155.5094 H   0  0  0  0  0  0  0  0  0  0  0  0  # atno 8009 bound_to 7997
  155.9019  140.1021  157.1334 H   0  0  0  0  0  0  0  0  0  0  0  0  # atno 8010 bound_to 7997
  140.6578  143.2612  151.4532 H   0  0  0  0  0  0  0  0  0  0  0  0  # atno 10167 bound_to 10162
  157.2353  131.0748  151.1827 H   0  0  0  0  0  0  0  0  0  0  0  0  # atno 10718 bound_to 10713
  154.6735  135.2943  154.9709 H   0  0  0  0  0  0  0  0  0  0  0  0  # atno 10763 bound_to 10752
  154.0728  135.6615  153.4830 H   0  0  0  0  0  0  0  0  0  0  0  0  # atno 10764 bound_to 10752
  153.0502  135.5179  154.7743 H   0  0  0  0  0  0  0  0  0  0  0  0  # atno 10765 bound_to 10752
  140.0767  134.9121  157.1434 H   0  0  0  0  0  0  0  0  0  0  0  0  # atno 11005 bound_to 11000
  145.8564  140.9500  143.0723 LP  0  0  0  0  0  0  0  0  0  0  0  0  # atno 17320 bound_to 7965
  144.6752  140.0474  143.7479 LP  0  0  0  0  0  0  0  0  0  0  0  0  # atno 17321 bound_to 7965
  139.5805  144.1721  152.1961 LP  0  0  0  0  0  0  0  0  0  0  0  0  # atno 17342 bound_to 10162
  140.1045  144.5511  150.6966 LP  0  0  0  0  0  0  0  0  0  0  0  0  # atno 17343 bound_to 10162
  157.3435  130.7045  149.6396 LP  0  0  0  0  0  0  0  0  0  0  0  0  # atno 17370 bound_to 10713
  155.9673  130.4273  150.4737 LP  0  0  0  0  0  0  0  0  0  0  0  0  # atno 17371 bound_to 10713
  140.3547  134.2560  155.7194 LP  0  0  0  0  0  0  0  0  0  0  0  0  # atno 17394 bound_to 11000
  141.2032  133.7918  157.0352 LP  0  0  0  0  0  0  0  0  0  0  0  0  # atno 17395 bound_to 11000

$$$$
