AV-unprocessed.smi:34|AV-procd|sdf|231|dock7
  -GOLD-   2262015563D 1   1.00000     0.00000
 Structure written by MMmdl.
 54 58  0  0  0  0  0  0  0  0  2 V2000
  147.8319  137.2448  161.1627 O   0  0  0  0  0  0  0  0  0  0  0  0
  147.3382  136.1167  161.1031 C   0  0  0  0  0  0  0  0  0  0  0  0
  147.7831  135.0481  160.3950 N   0  5  0  0  0  0  0  0  0  0  0  0
  148.3156  135.2259  159.1766 C   0  0  0  0  0  0  0  0  0  0  0  0
  149.1973  134.3248  158.6726 N   0  0  0  0  0  0  0  0  0  0  0  0
  149.7356  134.5100  157.4614 C   0  0  0  0  0  0  0  0  0  0  0  0
  149.5427  135.5140  156.5999 N   0  0  0  0  0  0  0  0  0  0  0  0
  148.6651  136.4316  157.1006 C   0  0  0  0  0  0  0  0  0  0  0  0
  148.0183  136.3569  158.3681 C   0  0  0  0  0  0  0  0  0  0  0  0
  147.1928  137.4535  158.5634 N   0  0  0  0  0  0  0  0  0  0  0  0
  147.3736  138.1307  157.4317 C   0  0  0  0  0  0  0  0  0  0  0  0
  148.2185  137.6053  156.5190 N   0  0  0  0  0  0  0  0  0  0  0  0
  148.6191  138.1361  155.1783 C   0  0  2  0  0  0  0  0  0  0  0  0
  149.3525  139.3097  155.3805 O   0  0  0  0  0  0  0  0  0  0  0  0
  148.5530  140.4396  155.0427 C   0  0  1  0  0  0  0  0  0  0  0  0
  149.4318  141.6546  154.7239 C   0  0  0  0  0  0  0  0  0  0  0  0
  149.8979  142.2081  155.9434 O   0  0  0  0  0  0  0  0  0  0  0  0
  150.9406  141.6502  156.5863 C   0  0  0  0  0  0  0  0  0  0  0  0
  151.3799  140.5280  156.3278 O   0  0  0  0  0  0  0  0  0  0  0  0
  151.5093  142.5349  157.6441 C   0  0  0  0  0  0  0  0  0  0  0  0
  152.1927  141.9563  158.7390 C   0  0  0  0  0  0  0  0  0  0  0  0
  152.7365  142.7665  159.7547 C   0  0  0  0  0  0  0  0  0  0  0  0
  152.6033  144.1655  159.6883 C   0  0  0  0  0  0  0  0  0  0  0  0
  151.9256  144.7534  158.6045 C   0  0  0  0  0  0  0  0  0  0  0  0
  151.3813  143.9449  157.5878 C   0  0  0  0  0  0  0  0  0  0  0  0
  147.7366  139.9110  153.8664 C   0  0  1  0  0  0  0  0  0  0  0  0
  148.5237  139.8487  152.7878 F   0  0  0  0  0  0  0  0  0  0  0  0
  147.3758  138.5158  154.3566 C   0  0  1  0  0  0  0  0  0  0  0  0
  147.1258  137.6475  153.2703 O   0  0  0  0  0  0  0  0  0  0  0  0
  146.0500  135.8487  161.8334 C   0  0  0  0  0  0  0  0  0  0  0  0
  145.6965  134.5212  162.1667 C   0  0  0  0  0  0  0  0  0  0  0  0
  144.4835  134.2478  162.8284 C   0  0  0  0  0  0  0  0  0  0  0  0
  143.6056  135.2983  163.1548 C   0  0  0  0  0  0  0  0  0  0  0  0
  143.9401  136.6225  162.8153 C   0  0  0  0  0  0  0  0  0  0  0  0
  145.1534  136.8970  162.1546 C   0  0  0  0  0  0  0  0  0  0  0  0
  150.4231  133.7434  157.1365 H   0  0  0  0  0  0  0  0  0  0  0  0
  146.8585  139.0637  157.2666 H   0  0  0  0  0  0  0  0  0  0  0  0
  149.2482  137.3685  154.7259 H   0  0  0  0  0  0  0  0  0  0  0  0
  147.8772  140.6800  155.8639 H   0  0  0  0  0  0  0  0  0  0  0  0
  150.2709  141.3703  154.0874 H   0  0  0  0  0  0  0  0  0  0  0  0
  148.8482  142.4055  154.1897 H   0  0  0  0  0  0  0  0  0  0  0  0
  152.3071  140.8843  158.8123 H   0  0  0  0  0  0  0  0  0  0  0  0
  153.2556  142.3133  160.5862 H   0  0  0  0  0  0  0  0  0  0  0  0
  153.0197  144.7864  160.4678 H   0  0  0  0  0  0  0  0  0  0  0  0
  151.8211  145.8270  158.5529 H   0  0  0  0  0  0  0  0  0  0  0  0
  150.8650  144.4293  156.7719 H   0  0  0  0  0  0  0  0  0  0  0  0
  146.8705  140.5260  153.6210 H   0  0  0  0  0  0  0  0  0  0  0  0
  146.4990  138.5637  155.0047 H   0  0  0  0  0  0  0  0  0  0  0  0
  147.9001  137.1266  153.1202 H   0  0  0  0  0  0  0  0  0  0  0  0
  146.3584  133.7033  161.9212 H   0  0  0  0  0  0  0  0  0  0  0  0
  144.2263  133.2307  163.0839 H   0  0  0  0  0  0  0  0  0  0  0  0
  142.6753  135.0883  163.6612 H   0  0  0  0  0  0  0  0  0  0  0  0
  143.2648  137.4294  163.0587 H   0  0  0  0  0  0  0  0  0  0  0  0
  145.3865  137.9193  161.8938 H   0  0  0  0  0  0  0  0  0  0  0  0
  1  2  2  0  0  0  0
  2  3  1  0  0  0  0
  2 30  1  0  0  0  0
  3  4  1  0  0  0  0
  4  9  1  0  0  0  0
  4  5  2  0  0  0  0
  5  6  1  0  0  0  0
  6  7  2  0  0  0  0
  6 36  1  0  0  0  0
  7  8  1  0  0  0  0
  8 12  1  0  0  0  0
  8  9  2  0  0  0  0
  9 10  1  0  0  0  0
 10 11  2  0  0  0  0
 11 12  1  0  0  0  0
 11 37  1  0  0  0  0
 12 13  1  0  0  0  0
 13 28  1  0  0  0  0
 13 14  1  0  0  0  0
 13 38  1  0  0  0  0
 14 15  1  0  0  0  0
 15 16  1  0  0  0  0
 15 26  1  0  0  0  0
 15 39  1  0  0  0  0
 16 17  1  0  0  0  0
 16 40  1  0  0  0  0
 16 41  1  0  0  0  0
 17 18  1  0  0  0  0
 18 19  2  0  0  0  0
 18 20  1  0  0  0  0
 20 25  1  0  0  0  0
 20 21  2  0  0  0  0
 21 22  1  0  0  0  0
 21 42  1  0  0  0  0
 22 23  2  0  0  0  0
 22 43  1  0  0  0  0
 23 24  1  0  0  0  0
 23 44  1  0  0  0  0
 24 25  2  0  0  0  0
 24 45  1  0  0  0  0
 25 46  1  0  0  0  0
 26 27  1  0  0  0  0
 26 28  1  0  0  0  0
 26 47  1  0  0  0  0
 28 29  1  0  0  0  0
 28 48  1  0  0  0  0
 29 49  1  0  0  0  0
 30 35  1  0  0  0  0
 30 31  2  0  0  0  0
 31 32  1  0  0  0  0
 31 50  1  0  0  0  0
 32 33  2  0  0  0  0
 32 51  1  0  0  0  0
 33 34  1  0  0  0  0
 33 52  1  0  0  0  0
 34 35  2  0  0  0  0
 34 53  1  0  0  0  0
 35 54  1  0  0  0  0
M  CHG  1   3  -1
M  END
> <s_m_source_file>
AV-unprocessed.smi

> <i_m_source_file_index>
34

> <i_lp_mmshare_version>
43012

> <i_f3d_flags>
0

> <s_epik_input>
W2NIXTFbY0hdW2NIXVtjSF1bY0hdYzFDKD1PKVtOSF1jKG5bY0hdbjIpYyhjMjMpbltjSF1uM1tDQEBIXTRPW0NASF0oW0NAQEhdKEYpW0NASF00W09IXSlbQ0gyXU9DKD1PKWM1W2NIXVtjSF1bY0hdW2NIXVtjSF01

> <s_epik_cmdline>
J2VwaWtfcHl0aG9uJywgJy1waCcsICc3LjAnLCAnLXRuJywgJzgnLCAnLW1hJywgJzIwMCcsICctbWV0YWxfYmluZGluZycsICctaW1hZScsICc8aW5maWxlLm1hZT4nLCAnLW9tYWUnLCAnPG91dGZpbGUubWFlPic=

> <r_lp_tautomer_probability>
1

> <r_epik_Ionization_Penalty>
4.33227

> <r_epik_Ionization_Penalty_Charging>
3.41027

> <r_epik_Ionization_Penalty_Neutral>
0.922001

> <r_epik_State_Penalty>
3.41358

> <r_epik_Charging_Adjusted_Penalty>
6.82385

> <i_epik_Tot_Q>
-1

> <i_epik_Tot_abs_Q>
1

> <r_epik_Metal_State_Penalty>
0.496292

> <b_epik_Metal_Only>
1

> <s_epik_Chemistry_Notes>
This compound has an ester and may undergo hydrolysis at high or low pH. This compound contains an acetal/aminal-like group ( X-CH(R)-Y where X, Y are N, S, or O) that may be acid/base labile, releasing an aldehyde.

> <s_lp_Force_Field>
OPLS_2005

> <r_lp_Energy>
43.1366

> <b_lp_Chiralities_Consistent>
1

> <s_lp_Variant>
AV-unprocessed.smi:34-17

> <Gold.Version>
5.8.1

> <Gold.Id.Protein>
6NUR|6NUR_protein|mol2

> <Gold.PLP.Fitness>
55.7052

> <Gold.PLP.PLP>
-47.8093

> <Gold.PLP.part.hbond>
-4.0000

> <Gold.PLP.part.metal>
0.0000

> <Gold.PLP.part.buried>
-1.4958

> <Gold.PLP.part.nonpolar>
-42.9173

> <Gold.PLP.part.repulsive>
1.5954

> <Gold.PLP.ligand.clash>
0.0000

> <Gold.PLP.ligand.torsion>
1.4699

> <Gold.PLP.Chemscore.Hbond>
3.5220

> <Gold.PLP.Chemscore.CHOScore>
0.0000

> <Gold.PLP.Chemscore.Metal>
0.0000

> <Gold.Chemscore.Hbonds>
donor molecule, donor type, donor heavy atom, donor atom, acceptor molecule, acceptor atom, score
      L1  H    29    49       P1  7948  0.93
      P1  H  6896  6908       L1     5  0.75
      P1  H  6931  6943       L1     1  0.94
      P1  H  6934  6947       L1     1  0.78

> <Gold.PLP.Chemscore.Internal.Correction>
0.2697

> <Gold.Rescore>
     Score         DG    S(hbond)    S(metal)    S(lipo)     H(rot)  DE(clash)    DE(int)     intcor
     14.02     -22.94       2.75        0.00     129.63       2.69       2.37       6.54       ----

> <Gold.Chemscore.Fitness>
14.0245

> <Gold.Chemscore.DG>
-22.9408

> <Gold.Chemscore.ZeroCoef>
-5.4800

> <Gold.Chemscore.Hbond>
2.7519

> <Gold.Chemscore.Metal>
0.0000

> <Gold.Chemscore.Lipo>
129.6337

> <Gold.Chemscore.Internal_Hbond>
0.0000

> <Gold.Chemscore.DEClash>
2.3729

> <Gold.Chemscore.DEInternal>
6.5434

> <Gold.Chemscore.Rot>
2.6944

> <Gold.Chemscore.Internal.Correction>
   9.000000E+99

> <Gold.Chemscore.Hbonds>
donor molecule, donor type, donor heavy atom, donor atom, acceptor molecule, acceptor atom, score
      L1  H    29    49       P1  7948  0.90
      P1  H  6896  6908       L1     5  0.07
      P1  H  6931  6943       L1     1  0.91
      P1  H  6934  6947       L1     1  0.78

> <Gold.Chemscore.Hbond.Weighted>
-9.1912

> <Gold.Chemscore.Metal.Weighted>
-0.0000

> <Gold.Chemscore.Lipo.Weighted>
-15.1671

> <Gold.Chemscore.Internal_Hbond.Weighted>
0.0000

> <Gold.Chemscore.DEClash.Weighted>
2.3729

> <Gold.Chemscore.DEInternal.Weighted>
6.5434

> <Gold.Chemscore.Rot.Weighted>
6.8975

> <Gold.Chemscore.Internal.Correction.Weighted>
   9.000000E+99

> <Gold.Protein.RotatedTorsions>
[ 6907 6896 6895 6894 ] final  158.76 input  -60.11 | X-H torsion
[ 7974 7965 7964 7962 ] final -175.85 input  175.53 | X-H torsion
[ 8008 7997 7996 7995 ] final  149.94 input   59.86 | X-H torsion
[ 10167 10162 10161 10158 ] final   -3.25 input  -65.29 | X-H torsion
[ 10718 10713 10712 10709 ] final   74.59 input   66.30 | X-H torsion
[ 10763 10752 10751 10750 ] final -121.34 input  -60.55 | X-H torsion
[ 11005 11000 10999 10996 ] final  151.53 input  -57.11 | X-H torsion

> <Gold.Protein.ActiveResidues>
 VAL166  LYS551  ARG553  GLY616  TRP617  ASP618  TYR619  PRO620  LYS621  CYS622 
 ASP623  PHE694  ASN695  SER759  ASP760  ASP761  ALA762  ILE779  LEU786  VAL792 
 PHE793  MET794  SER795  GLU796  ALA797  LYS798  CYS799  TRP800  GLU811  SER814 

> <Gold.Protein.RotatedAtoms>
  151.9956  133.3807  159.4161 H   0  0  0  0  0  0  0  0  0  0  0  0  # atno 6907 bound_to 6896
  150.6916  134.3889  159.5076 H   0  0  0  0  0  0  0  0  0  0  0  0  # atno 6908 bound_to 6896
  152.1629  134.8897  160.0591 H   0  0  0  0  0  0  0  0  0  0  0  0  # atno 6909 bound_to 6896
  144.7127  140.1259  143.6402 H   0  0  0  0  0  0  0  0  0  0  0  0  # atno 7974 bound_to 7965
  156.2735  140.2088  156.5938 H   0  0  0  0  0  0  0  0  0  0  0  0  # atno 8008 bound_to 7997
  154.6961  140.0525  157.0436 H   0  0  0  0  0  0  0  0  0  0  0  0  # atno 8009 bound_to 7997
  155.0799  140.3185  155.4608 H   0  0  0  0  0  0  0  0  0  0  0  0  # atno 8010 bound_to 7997
  140.6883  143.6562  150.8306 H   0  0  0  0  0  0  0  0  0  0  0  0  # atno 10167 bound_to 10162
  157.6598  130.9685  150.1232 H   0  0  0  0  0  0  0  0  0  0  0  0  # atno 10718 bound_to 10713
  154.8666  135.4171  154.2605 H   0  0  0  0  0  0  0  0  0  0  0  0  # atno 10763 bound_to 10752
  153.3534  135.7000  153.6776 H   0  0  0  0  0  0  0  0  0  0  0  0  # atno 10764 bound_to 10752
  153.5706  135.3592  155.2809 H   0  0  0  0  0  0  0  0  0  0  0  0  # atno 10765 bound_to 10752
  140.1227  134.8853  157.2094 H   0  0  0  0  0  0  0  0  0  0  0  0  # atno 11005 bound_to 11000
  145.9330  139.2618  143.1314 LP  0  0  0  0  0  0  0  0  0  0  0  0  # atno 17320 bound_to 7965
  145.9503  140.8913  143.0262 LP  0  0  0  0  0  0  0  0  0  0  0  0  # atno 17321 bound_to 7965
  140.0272  143.5481  152.2775 LP  0  0  0  0  0  0  0  0  0  0  0  0  # atno 17342 bound_to 10162
  139.6261  144.7637  151.2636 LP  0  0  0  0  0  0  0  0  0  0  0  0  # atno 17343 bound_to 10162
  156.2098  130.3666  149.8684 LP  0  0  0  0  0  0  0  0  0  0  0  0  # atno 17370 bound_to 10713
  156.6566  130.8765  151.3540 LP  0  0  0  0  0  0  0  0  0  0  0  0  # atno 17371 bound_to 10713
  140.2944  134.3203  155.7306 LP  0  0  0  0  0  0  0  0  0  0  0  0  # atno 17394 bound_to 11000
  141.2155  133.7554  156.9550 LP  0  0  0  0  0  0  0  0  0  0  0  0  # atno 17395 bound_to 11000

$$$$
