AV-unprocessed.smi:162|AV-procd|sdf|1379|dock3
  -GOLD-   2262019103D 1   1.00000     0.00000
 Structure written by MMmdl.
 54 57  0  0  0  0  0  0  0  0  1 V2000
  155.4687  140.1125  161.0158 C   0  0  0  0  0  0  0  0  0  0  0  0
  154.0814  139.8412  161.1087 O   0  0  0  0  0  0  0  0  0  0  0  0
  153.4206  139.9544  159.8597 C   0  0  0  0  0  0  0  0  0  0  0  0
  152.7003  141.3122  159.7963 C   0  0  1  0  0  0  0  0  0  0  0  0
  153.5411  142.4797  160.3101 C   0  0  0  0  0  0  0  0  0  0  0  0
  152.8988  143.7097  159.6590 C   0  0  2  0  0  0  0  0  0  0  0  0
  152.0544  144.3523  160.6043 O   0  0  0  0  0  0  0  0  0  0  0  0
  151.6683  145.6626  160.2215 C   0  0  0  0  0  0  0  0  0  0  0  0
  152.0766  143.1413  158.4857 C   0  0  0  0  0  0  0  0  0  0  0  0
  152.3547  141.7127  158.4399 N   0  0  0  0  0  0  0  0  0  0  0  0
  151.4100  140.9756  157.8159 C   0  0  0  0  0  0  0  0  0  0  0  0
  150.1255  141.1852  158.1937 N   0  0  0  0  0  0  0  0  0  0  0  0
  149.1371  140.4992  157.6120 C   0  0  0  0  0  0  0  0  0  0  0  0
  149.2140  139.5763  156.6509 N   0  0  0  0  0  0  0  0  0  0  0  0
  150.5065  139.3617  156.2712 C   0  0  0  0  0  0  0  0  0  0  0  0
  151.6584  140.0105  156.7982 C   0  0  0  0  0  0  0  0  0  0  0  0
  152.8010  139.5291  156.1702 N   0  0  0  0  0  0  0  0  0  0  0  0
  152.3497  138.6521  155.3156 C   0  0  0  0  0  0  0  0  0  0  0  0
  150.9823  138.4937  155.3042 N   0  0  0  0  0  0  0  0  0  0  0  0
  150.2157  137.5963  154.4536 C   0  0  0  0  0  0  0  0  0  0  0  0
  149.6379  136.3687  155.2006 C   0  0  0  0  0  0  0  0  0  0  0  0
  148.7048  135.7416  154.3371 O   0  0  0  0  0  0  0  0  0  0  0  0
  150.7568  135.3581  155.5232 C   0  0  0  0  0  0  0  0  0  0  0  0
  150.2576  134.2027  156.4092 C   0  0  0  0  0  0  0  0  0  0  0  0
  149.6699  134.7192  157.5971 O   0  0  0  0  0  0  0  0  0  0  0  0
  148.5220  135.5193  157.3407 C   0  0  0  0  0  0  0  0  0  0  0  0
  148.9112  136.7539  156.5083 C   0  0  0  0  0  0  0  0  0  0  0  0
  151.7900  141.2572  160.3938 H   0  0  0  0  0  0  0  0  0  0  0  0
  153.6789  144.3914  159.3150 H   0  0  0  0  0  0  0  0  0  0  0  0
  155.9288  140.0026  161.9975 H   0  0  0  0  0  0  0  0  0  0  0  0
  155.6482  141.1320  160.6724 H   0  0  0  0  0  0  0  0  0  0  0  0
  155.9625  139.4200  160.3327 H   0  0  0  0  0  0  0  0  0  0  0  0
  154.1360  139.8647  159.0404 H   0  0  0  0  0  0  0  0  0  0  0  0
  152.7029  139.1387  159.7583 H   0  0  0  0  0  0  0  0  0  0  0  0
  153.5709  142.5341  161.3989 H   0  0  0  0  0  0  0  0  0  0  0  0
  154.5684  142.3798  159.9563 H   0  0  0  0  0  0  0  0  0  0  0  0
  151.0305  146.0937  160.9931 H   0  0  0  0  0  0  0  0  0  0  0  0
  151.1069  145.6618  159.2867 H   0  0  0  0  0  0  0  0  0  0  0  0
  152.5378  146.3107  160.1059 H   0  0  0  0  0  0  0  0  0  0  0  0
  151.0115  143.3304  158.6256 H   0  0  0  0  0  0  0  0  0  0  0  0
  152.3727  143.6051  157.5443 H   0  0  0  0  0  0  0  0  0  0  0  0
  148.1416  140.7235  157.9657 H   0  0  0  0  0  0  0  0  0  0  0  0
  153.0053  138.0972  154.6603 H   0  0  0  0  0  0  0  0  0  0  0  0
  149.4136  138.1699  153.9869 H   0  0  0  0  0  0  0  0  0  0  0  0
  150.8637  137.2668  153.6401 H   0  0  0  0  0  0  0  0  0  0  0  0
  148.8302  136.0795  153.4634 H   0  0  0  0  0  0  0  0  0  0  0  0
  151.1940  134.9641  154.6047 H   0  0  0  0  0  0  0  0  0  0  0  0
  151.5640  135.8697  156.0493 H   0  0  0  0  0  0  0  0  0  0  0  0
  149.5399  133.5779  155.8755 H   0  0  0  0  0  0  0  0  0  0  0  0
  151.0924  133.5579  156.6840 H   0  0  0  0  0  0  0  0  0  0  0  0
  147.7583  134.9278  156.8335 H   0  0  0  0  0  0  0  0  0  0  0  0
  148.0947  135.8337  158.2930 H   0  0  0  0  0  0  0  0  0  0  0  0
  149.5671  137.3840  157.1106 H   0  0  0  0  0  0  0  0  0  0  0  0
  148.0214  137.3490  156.2997 H   0  0  0  0  0  0  0  0  0  0  0  0
  1  2  1  0  0  0  0
  1 30  1  0  0  0  0
  1 31  1  0  0  0  0
  1 32  1  0  0  0  0
  2  3  1  0  0  0  0
  3  4  1  0  0  0  0
  3 33  1  0  0  0  0
  3 34  1  0  0  0  0
  4 28  1  0  0  0  0
  4 10  1  0  0  0  0
  4  5  1  0  0  0  0
  5  6  1  0  0  0  0
  5 35  1  0  0  0  0
  5 36  1  0  0  0  0
  6 29  1  0  0  0  0
  6  7  1  0  0  0  0
  6  9  1  0  0  0  0
  7  8  1  0  0  0  0
  8 37  1  0  0  0  0
  8 38  1  0  0  0  0
  8 39  1  0  0  0  0
  9 10  1  0  0  0  0
  9 40  1  0  0  0  0
  9 41  1  0  0  0  0
 10 11  1  0  0  0  0
 11 16  1  0  0  0  0
 11 12  2  0  0  0  0
 12 13  1  0  0  0  0
 13 14  2  0  0  0  0
 13 42  1  0  0  0  0
 14 15  1  0  0  0  0
 15 19  1  0  0  0  0
 15 16  2  0  0  0  0
 16 17  1  0  0  0  0
 17 18  2  0  0  0  0
 18 19  1  0  0  0  0
 18 43  1  0  0  0  0
 19 20  1  0  0  0  0
 20 21  1  0  0  0  0
 20 44  1  0  0  0  0
 20 45  1  0  0  0  0
 21 27  1  0  0  0  0
 21 22  1  0  0  0  0
 21 23  1  0  0  0  0
 22 46  1  0  0  0  0
 23 24  1  0  0  0  0
 23 47  1  0  0  0  0
 23 48  1  0  0  0  0
 24 25  1  0  0  0  0
 24 49  1  0  0  0  0
 24 50  1  0  0  0  0
 25 26  1  0  0  0  0
 26 27  1  0  0  0  0
 26 51  1  0  0  0  0
 26 52  1  0  0  0  0
 27 53  1  0  0  0  0
 27 54  1  0  0  0  0
M  END
> <s_m_source_file>
AV-unprocessed.smi

> <i_m_source_file_index>
162

> <i_lp_mmshare_version>
43012

> <i_f3d_flags>
0

> <s_epik_input>
W0NIM11PW0NIMl1bQ0BASF0xW0NIMl1bQ0BASF0oT1tDSDNdKVtDSDJdTjFjKG5bY0hdbjIpYyhjMjMpbltjSF1uM1tDSDJdQzQoW09IXSlbQ0gyXVtDSDJdT1tDSDJdW0NIMl00

> <s_epik_cmdline>
J2VwaWtfcHl0aG9uJywgJy1waCcsICc3LjAnLCAnLXRuJywgJzgnLCAnLW1hJywgJzIwMCcsICctbWV0YWxfYmluZGluZycsICctaW1hZScsICc8aW5maWxlLm1hZT4nLCAnLW9tYWUnLCAnPG91dGZpbGUubWFlPic=

> <r_lp_tautomer_probability>
1

> <r_epik_Ionization_Penalty>
0.00660334

> <r_epik_Ionization_Penalty_Charging>
0

> <r_epik_Ionization_Penalty_Neutral>
0.00660334

> <r_epik_State_Penalty>
0.00469459

> <r_epik_Charging_Adjusted_Penalty>
0.00469459

> <i_epik_Tot_Q>
0

> <i_epik_Tot_abs_Q>
0

> <r_epik_Metal_State_Penalty>
-0

> <b_epik_Metal_Only>
0

> <s_lp_Force_Field>
OPLS_2005

> <r_lp_Energy>
43.1058

> <b_lp_Chiralities_Consistent>
1

> <s_lp_Variant>
AV-unprocessed.smi:162-4

> <Gold.Version>
5.8.1

> <Gold.Id.Protein>
6NUR|6NUR_protein|mol2

> <Gold.PLP.Fitness>
48.8129

> <Gold.PLP.PLP>
-41.8762

> <Gold.PLP.part.hbond>
-3.0000

> <Gold.PLP.part.metal>
0.0000

> <Gold.PLP.part.buried>
-6.0586

> <Gold.PLP.part.nonpolar>
-34.7018

> <Gold.PLP.part.repulsive>
0.1210

> <Gold.PLP.ligand.clash>
0.0000

> <Gold.PLP.ligand.torsion>
1.1360

> <Gold.PLP.Chemscore.Hbond>
2.9920

> <Gold.PLP.Chemscore.CHOScore>
0.0000

> <Gold.PLP.Chemscore.Metal>
0.0000

> <Gold.Chemscore.Hbonds>
donor molecule, donor type, donor heavy atom, donor atom, acceptor molecule, acceptor atom, score
      L1  H    22    46       P1  7948  1.00
      P1  H  6896  6909       L1    25  0.83
      P1  H  7997  8008       L1    17  1.00

> <Gold.PLP.Chemscore.Internal.Correction>
0.2327

> <Gold.Rescore>
     Score         DG    S(hbond)    S(metal)    S(lipo)     H(rot)  DE(clash)    DE(int)     intcor
     17.08     -19.42       2.92        0.00      98.30       2.86       0.03       2.31       ----

> <Gold.Chemscore.Fitness>
17.0828

> <Gold.Chemscore.DG>
-19.4156

> <Gold.Chemscore.ZeroCoef>
-5.4800

> <Gold.Chemscore.Hbond>
2.9243

> <Gold.Chemscore.Metal>
0.0000

> <Gold.Chemscore.Lipo>
98.2969

> <Gold.Chemscore.Internal_Hbond>
0.0000

> <Gold.Chemscore.DEClash>
0.0276

> <Gold.Chemscore.DEInternal>
2.3052

> <Gold.Chemscore.Rot>
2.8642

> <Gold.Chemscore.Internal.Correction>
   9.000000E+99

> <Gold.Chemscore.Hbonds>
donor molecule, donor type, donor heavy atom, donor atom, acceptor molecule, acceptor atom, score
      L1  H    22    46       P1  7948  0.98
      P1  H  6896  6909       L1    25  0.70
      P1  H  7997  8008       L1    17  1.00

> <Gold.Chemscore.Hbond.Weighted>
-9.7672

> <Gold.Chemscore.Metal.Weighted>
-0.0000

> <Gold.Chemscore.Lipo.Weighted>
-11.5007

> <Gold.Chemscore.Internal_Hbond.Weighted>
0.0000

> <Gold.Chemscore.DEClash.Weighted>
0.0276

> <Gold.Chemscore.DEInternal.Weighted>
2.3052

> <Gold.Chemscore.Rot.Weighted>
7.3324

> <Gold.Chemscore.Internal.Correction.Weighted>
   9.000000E+99

> <Gold.Protein.RotatedTorsions>
[ 6907 6896 6895 6894 ] final   24.30 input  -60.11 | X-H torsion
[ 7974 7965 7964 7962 ] final  -59.15 input  175.53 | X-H torsion
[ 8008 7997 7996 7995 ] final  -48.30 input   59.86 | X-H torsion
[ 10167 10162 10161 10158 ] final  161.90 input  -65.29 | X-H torsion
[ 10718 10713 10712 10709 ] final   72.19 input   66.30 | X-H torsion
[ 10763 10752 10751 10750 ] final -139.63 input  -60.55 | X-H torsion
[ 11005 11000 10999 10996 ] final    3.92 input  -57.11 | X-H torsion

> <Gold.Protein.ActiveResidues>
 VAL166  LYS551  ARG553  GLY616  TRP617  ASP618  TYR619  PRO620  LYS621  CYS622 
 ASP623  PHE694  ASN695  SER759  ASP760  ASP761  ALA762  ILE779  LEU786  VAL792 
 PHE793  MET794  SER795  GLU796  ALA797  LYS798  CYS799  TRP800  GLU811  SER814 

> <Gold.Protein.RotatedAtoms>
  151.9554  135.0149  160.0544 H   0  0  0  0  0  0  0  0  0  0  0  0  # atno 6907 bound_to 6896
  152.1916  133.4772  159.5019 H   0  0  0  0  0  0  0  0  0  0  0  0  # atno 6908 bound_to 6896
  150.6936  134.1622  159.4223 H   0  0  0  0  0  0  0  0  0  0  0  0  # atno 6909 bound_to 6896
  145.8308  140.8481  143.0084 H   0  0  0  0  0  0  0  0  0  0  0  0  # atno 7974 bound_to 7965
  154.4027  140.1325  156.4316 H   0  0  0  0  0  0  0  0  0  0  0  0  # atno 8008 bound_to 7997
  155.7545  140.3487  155.5147 H   0  0  0  0  0  0  0  0  0  0  0  0  # atno 8009 bound_to 7997
  155.8918  140.1004  157.1403 H   0  0  0  0  0  0  0  0  0  0  0  0  # atno 8010 bound_to 7997
  139.4854  144.4491  151.8853 H   0  0  0  0  0  0  0  0  0  0  0  0  # atno 10167 bound_to 10162
  157.6489  130.9566  150.0894 H   0  0  0  0  0  0  0  0  0  0  0  0  # atno 10718 bound_to 10713
  154.8603  135.3577  154.5577 H   0  0  0  0  0  0  0  0  0  0  0  0  # atno 10763 bound_to 10752
  153.6193  135.7006  153.5321 H   0  0  0  0  0  0  0  0  0  0  0  0  # atno 10764 bound_to 10752
  153.3142  135.4169  155.1322 H   0  0  0  0  0  0  0  0  0  0  0  0  # atno 10765 bound_to 10752
  140.5877  133.9953  155.8075 H   0  0  0  0  0  0  0  0  0  0  0  0  # atno 11005 bound_to 11000
  144.6740  140.0670  143.7474 LP  0  0  0  0  0  0  0  0  0  0  0  0  # atno 17320 bound_to 7965
  145.9573  139.2775  143.1177 LP  0  0  0  0  0  0  0  0  0  0  0  0  # atno 17321 bound_to 7965
  140.3947  144.2571  150.5897 LP  0  0  0  0  0  0  0  0  0  0  0  0  # atno 17342 bound_to 10162
  140.5113  143.2290  151.8530 LP  0  0  0  0  0  0  0  0  0  0  0  0  # atno 17343 bound_to 10162
  156.1847  130.3651  149.8988 LP  0  0  0  0  0  0  0  0  0  0  0  0  # atno 17370 bound_to 10713
  156.6931  130.8903  151.3590 LP  0  0  0  0  0  0  0  0  0  0  0  0  # atno 17371 bound_to 10713
  141.0955  133.9850  157.3167 LP  0  0  0  0  0  0  0  0  0  0  0  0  # atno 17394 bound_to 11000
  139.9288  135.0201  156.8328 LP  0  0  0  0  0  0  0  0  0  0  0  0  # atno 17395 bound_to 11000

$$$$
