AV-unprocessed.smi:772|AV-procd|sdf|3687|dock4
  -GOLD-   22720 1103D 1   1.00000     0.00000
 Structure written by MMmdl.
 47 48  0  0  0  0  0  0  0  0  2 V2000
  143.5239  132.6051  151.0304 C   0  0  0  0  0  0  0  0  0  0  0  0
  144.1628  133.7881  151.7261 C   0  0  0  0  0  0  0  0  0  0  0  0
  144.7856  134.8356  151.0146 C   0  0  0  0  0  0  0  0  0  0  0  0
  145.3707  135.9006  151.7300 C   0  0  0  0  0  0  0  0  0  0  0  0
  145.3226  135.8969  153.1411 C   0  0  0  0  0  0  0  0  0  0  0  0
  145.9795  137.0117  153.9360 C   0  0  0  0  0  0  0  0  0  0  0  0
  146.5841  138.1222  153.0548 C   0  0  0  0  0  0  0  0  0  0  0  0
  147.9843  138.3892  153.3761 N   0  0  0  0  0  0  0  0  0  0  0  0
  148.4399  139.3942  154.1452 C   0  0  0  0  0  0  0  0  0  0  0  0
  147.6838  140.2159  154.6656 O   0  0  0  0  0  0  0  0  0  0  0  0
  149.7910  139.4567  154.2554 N   0  0  0  0  0  0  0  0  0  0  0  0
  150.7390  138.4050  153.8549 C   0  0  0  0  0  0  0  0  0  0  0  0
  151.0997  137.5637  155.0884 C   0  0  0  0  0  0  0  0  0  0  0  0
  151.9382  138.5786  156.3440 S   0  0  0  0  0  0  0  0  0  0  0  0
  150.7820  139.9913  156.4466 C   0  0  1  0  0  0  0  0  0  0  0  0
  151.2945  141.1030  157.3970 C   0  0  0  0  0  0  0  0  0  0  0  0
  151.6461  140.6037  158.8112 C   0  0  0  0  0  0  0  0  0  0  0  0
  150.3257  142.2958  157.4624 C   0  0  0  0  0  0  0  0  0  0  0  0
  150.4506  140.5147  155.0308 C   0  0  0  0  0  0  0  0  0  0  0  0
  144.6789  134.8262  153.7984 C   0  0  0  0  0  0  0  0  0  0  0  0
  144.1320  133.8238  153.0771 N   0  3  0  0  0  0  0  0  0  0  0  0
  143.4904  132.7553  149.9509 H   0  0  0  0  0  0  0  0  0  0  0  0
  142.5032  132.4588  151.3846 H   0  0  0  0  0  0  0  0  0  0  0  0
  144.0929  131.6970  151.2312 H   0  0  0  0  0  0  0  0  0  0  0  0
  144.8225  134.8230  149.9349 H   0  0  0  0  0  0  0  0  0  0  0  0
  145.8620  136.7042  151.2008 H   0  0  0  0  0  0  0  0  0  0  0  0
  145.2364  137.4434  154.6074 H   0  0  0  0  0  0  0  0  0  0  0  0
  146.7542  136.5876  154.5764 H   0  0  0  0  0  0  0  0  0  0  0  0
  146.4729  137.8713  151.9987 H   0  0  0  0  0  0  0  0  0  0  0  0
  146.0258  139.0464  153.2046 H   0  0  0  0  0  0  0  0  0  0  0  0
  148.6662  137.7602  152.9778 H   0  0  0  0  0  0  0  0  0  0  0  0
  150.3569  137.7597  153.0638 H   0  0  0  0  0  0  0  0  0  0  0  0
  151.6398  138.8560  153.4363 H   0  0  0  0  0  0  0  0  0  0  0  0
  150.2036  137.1221  155.5255 H   0  0  0  0  0  0  0  0  0  0  0  0
  151.7583  136.7413  154.8091 H   0  0  0  0  0  0  0  0  0  0  0  0
  149.8571  139.6011  156.8741 H   0  0  0  0  0  0  0  0  0  0  0  0
  152.2179  141.4879  156.9626 H   0  0  0  0  0  0  0  0  0  0  0  0
  150.7729  140.2106  159.3317 H   0  0  0  0  0  0  0  0  0  0  0  0
  152.0476  141.4149  159.4191 H   0  0  0  0  0  0  0  0  0  0  0  0
  152.4024  139.8199  158.7870 H   0  0  0  0  0  0  0  0  0  0  0  0
  149.3756  142.0202  157.9205 H   0  0  0  0  0  0  0  0  0  0  0  0
  150.1146  142.6878  156.4671 H   0  0  0  0  0  0  0  0  0  0  0  0
  150.7487  143.1108  158.0505 H   0  0  0  0  0  0  0  0  0  0  0  0
  151.3570  140.8325  154.5150 H   0  0  0  0  0  0  0  0  0  0  0  0
  149.8288  141.4090  155.0944 H   0  0  0  0  0  0  0  0  0  0  0  0
  144.5990  134.7328  154.8716 H   0  0  0  0  0  0  0  0  0  0  0  0
  143.6788  133.0568  153.5743 H   0  0  0  0  0  0  0  0  0  0  0  0
  1  2  1  0  0  0  0
  1 22  1  0  0  0  0
  1 23  1  0  0  0  0
  1 24  1  0  0  0  0
  2 21  1  0  0  0  0
  2  3  2  0  0  0  0
  3  4  1  0  0  0  0
  3 25  1  0  0  0  0
  4  5  2  0  0  0  0
  4 26  1  0  0  0  0
  5  6  1  0  0  0  0
  5 20  1  0  0  0  0
  6  7  1  0  0  0  0
  6 27  1  0  0  0  0
  6 28  1  0  0  0  0
  7  8  1  0  0  0  0
  7 29  1  0  0  0  0
  7 30  1  0  0  0  0
  8  9  1  0  0  0  0
  8 31  1  0  0  0  0
  9 10  2  0  0  0  0
  9 11  1  0  0  0  0
 11 19  1  0  0  0  0
 11 12  1  0  0  0  0
 12 13  1  0  0  0  0
 12 32  1  0  0  0  0
 12 33  1  0  0  0  0
 13 14  1  0  0  0  0
 13 34  1  0  0  0  0
 13 35  1  0  0  0  0
 14 15  1  0  0  0  0
 15 16  1  0  0  0  0
 15 19  1  0  0  0  0
 15 36  1  0  0  0  0
 16 17  1  0  0  0  0
 16 18  1  0  0  0  0
 16 37  1  0  0  0  0
 17 38  1  0  0  0  0
 17 39  1  0  0  0  0
 17 40  1  0  0  0  0
 18 41  1  0  0  0  0
 18 42  1  0  0  0  0
 18 43  1  0  0  0  0
 19 44  1  0  0  0  0
 19 45  1  0  0  0  0
 20 21  2  0  0  0  0
 20 46  1  0  0  0  0
 21 47  1  0  0  0  0
M  CHG  1  21   1
M  END
> <s_m_source_file>
AV-unprocessed.smi

> <i_m_source_file_index>
772

> <i_lp_mmshare_version>
43012

> <i_f3d_flags>
0

> <s_epik_input>
W0NIM11jMVtjSF1bY0hdYyhbY0hdbjEpW0NIMl1bQ0gyXVtOSF1DKD1PKU4yW0NIMl1bQ0gyXVNbQ0BIXShbQ0gyXTIpW0NIXShbQ0gzXSlbQ0gzXQ==

> <s_epik_cmdline>
J2VwaWtfcHl0aG9uJywgJy1waCcsICc3LjAnLCAnLXRuJywgJzgnLCAnLW1hJywgJzIwMCcsICctbWV0YWxfYmluZGluZycsICctaW1hZScsICc8aW5maWxlLm1hZT4nLCAnLW9tYWUnLCAnPG91dGZpbGUubWFlPic=

> <r_epik_Ionization_Penalty>
1.41908

> <r_epik_Ionization_Penalty_Charging>
1.41903

> <r_epik_Ionization_Penalty_Neutral>
4.72921e-05

> <r_epik_State_Penalty>
1.50265

> <r_epik_Charging_Adjusted_Penalty>
2.92168

> <i_epik_Tot_Q>
1

> <i_epik_Tot_abs_Q>
1

> <r_epik_Metal_State_Penalty>
1.55496

> <b_epik_Metal_Only>
0

> <s_lp_Force_Field>
OPLS_2005

> <r_lp_Energy>
32.521

> <b_lp_Chiralities_Consistent>
1

> <s_lp_Variant>
AV-unprocessed.smi:772-3

> <Gold.Version>
5.8.1

> <Gold.Id.Protein>
6NUR|6NUR_protein|mol2

> <Gold.PLP.Fitness>
41.5075

> <Gold.PLP.PLP>
-33.6730

> <Gold.PLP.part.hbond>
-2.3918

> <Gold.PLP.part.metal>
0.0000

> <Gold.PLP.part.buried>
-2.9207

> <Gold.PLP.part.nonpolar>
-29.1209

> <Gold.PLP.part.repulsive>
0.1102

> <Gold.PLP.ligand.clash>
0.0000

> <Gold.PLP.ligand.torsion>
0.5711

> <Gold.PLP.Chemscore.Hbond>
2.9600

> <Gold.PLP.Chemscore.CHOScore>
0.0000

> <Gold.PLP.Chemscore.Metal>
0.0000

> <Gold.Chemscore.Hbonds>
donor molecule, donor type, donor heavy atom, donor atom, acceptor molecule, acceptor atom, score
      L1  H     8    31       P1  7948  0.94
      L1  H    21    47       P1 10957  1.98

> <Gold.PLP.Chemscore.Internal.Correction>
0.0967

> <Gold.Rescore>
     Score         DG    S(hbond)    S(metal)    S(lipo)     H(rot)  DE(clash)    DE(int)     intcor
     17.32     -18.21       1.92        0.00      84.40       1.39       0.31       0.58       ----

> <Gold.Chemscore.Fitness>
17.3241

> <Gold.Chemscore.DG>
-18.2123

> <Gold.Chemscore.ZeroCoef>
-5.4800

> <Gold.Chemscore.Hbond>
1.9247

> <Gold.Chemscore.Metal>
0.0000

> <Gold.Chemscore.Lipo>
84.3990

> <Gold.Chemscore.Internal_Hbond>
0.0000

> <Gold.Chemscore.DEClash>
0.3078

> <Gold.Chemscore.DEInternal>
0.5804

> <Gold.Chemscore.Rot>
1.3949

> <Gold.Chemscore.Internal.Correction>
   9.000000E+99

> <Gold.Chemscore.Hbonds>
donor molecule, donor type, donor heavy atom, donor atom, acceptor molecule, acceptor atom, score
      L1  H     8    31       P1  7948  0.91
      L1  H    21    47       P1 10957  0.84

> <Gold.Chemscore.Hbond.Weighted>
-6.4286

> <Gold.Chemscore.Metal.Weighted>
-0.0000

> <Gold.Chemscore.Lipo.Weighted>
-9.8747

> <Gold.Chemscore.Internal_Hbond.Weighted>
0.0000

> <Gold.Chemscore.DEClash.Weighted>
0.3078

> <Gold.Chemscore.DEInternal.Weighted>
0.5804

> <Gold.Chemscore.Rot.Weighted>
3.5709

> <Gold.Chemscore.Internal.Correction.Weighted>
   9.000000E+99

> <Gold.Protein.RotatedTorsions>
[ 6907 6896 6895 6894 ] final   74.14 input  -60.11 | X-H torsion
[ 7974 7965 7964 7962 ] final   26.57 input  175.53 | X-H torsion
[ 8008 7997 7996 7995 ] final   -9.21 input   59.86 | X-H torsion
[ 10167 10162 10161 10158 ] final  139.63 input  -65.29 | X-H torsion
[ 10718 10713 10712 10709 ] final  163.11 input   66.30 | X-H torsion
[ 10763 10752 10751 10750 ] final -107.50 input  -60.55 | X-H torsion
[ 11005 11000 10999 10996 ] final   48.97 input  -57.11 | X-H torsion

> <Gold.Protein.ActiveResidues>
 VAL166  LYS551  ARG553  GLY616  TRP617  ASP618  TYR619  PRO620  LYS621  CYS622 
 ASP623  PHE694  ASN695  SER759  ASP760  ASP761  ALA762  ILE779  LEU786  VAL792 
 PHE793  MET794  SER795  GLU796  ALA797  LYS798  CYS799  TRP800  GLU811  SER814 

> <Gold.Protein.RotatedAtoms>
  152.4960  134.4316  159.9513 H   0  0  0  0  0  0  0  0  0  0  0  0  # atno 6907 bound_to 6896
  151.4295  133.3668  159.2774 H   0  0  0  0  0  0  0  0  0  0  0  0  # atno 6908 bound_to 6896
  150.9165  134.8605  159.7520 H   0  0  0  0  0  0  0  0  0  0  0  0  # atno 6909 bound_to 6896
  146.1830  139.7310  142.8886 H   0  0  0  0  0  0  0  0  0  0  0  0  # atno 7974 bound_to 7965
  154.5668  140.2361  155.8252 H   0  0  0  0  0  0  0  0  0  0  0  0  # atno 8008 bound_to 7997
  156.2074  140.3035  155.9616 H   0  0  0  0  0  0  0  0  0  0  0  0  # atno 8009 bound_to 7997
  155.2786  140.0421  157.3004 H   0  0  0  0  0  0  0  0  0  0  0  0  # atno 8010 bound_to 7997
  139.5073  144.6283  151.5881 H   0  0  0  0  0  0  0  0  0  0  0  0  # atno 10167 bound_to 10162
  157.1132  131.0473  151.2448 H   0  0  0  0  0  0  0  0  0  0  0  0  # atno 10718 bound_to 10713
  154.8079  135.4672  154.0439 H   0  0  0  0  0  0  0  0  0  0  0  0  # atno 10763 bound_to 10752
  153.1894  135.6853  153.8380 H   0  0  0  0  0  0  0  0  0  0  0  0  # atno 10764 bound_to 10752
  153.7903  135.3244  155.3355 H   0  0  0  0  0  0  0  0  0  0  0  0  # atno 10765 bound_to 10752
  140.1144  134.4912  155.8650 H   0  0  0  0  0  0  0  0  0  0  0  0  # atno 11005 bound_to 11000
  145.4020  141.0386  143.3065 LP  0  0  0  0  0  0  0  0  0  0  0  0  # atno 17320 bound_to 7965
  144.8348  139.5568  143.6927 LP  0  0  0  0  0  0  0  0  0  0  0  0  # atno 17321 bound_to 7965
  140.6008  143.9614  150.6385 LP  0  0  0  0  0  0  0  0  0  0  0  0  # atno 17342 bound_to 10162
  140.2825  143.3380  152.1138 LP  0  0  0  0  0  0  0  0  0  0  0  0  # atno 17343 bound_to 10162
  157.4541  130.7615  149.7177 LP  0  0  0  0  0  0  0  0  0  0  0  0  # atno 17370 bound_to 10713
  155.9845  130.3990  150.3306 LP  0  0  0  0  0  0  0  0  0  0  0  0  # atno 17371 bound_to 10713
  141.2138  133.6738  156.6767 LP  0  0  0  0  0  0  0  0  0  0  0  0  # atno 17394 bound_to 11000
  140.3048  134.8134  157.4128 LP  0  0  0  0  0  0  0  0  0  0  0  0  # atno 17395 bound_to 11000

$$$$
