AV-unprocessed.smi:598|AV-procd|sdf|3021|dock7
  -GOLD-   2262023533D 1   1.00000     0.00000
 Structure written by MMmdl.
 43 44  0  0  0  0  0  0  0  0  3 V2000
  149.5055  140.6577  154.4260 C   0  0  0  0  0  0  0  0  0  0  0  0
  149.5761  140.3206  155.9263 C   0  0  2  0  0  0  0  0  0  0  0  0
  150.0620  141.5539  156.7157 C   0  0  0  0  0  0  0  0  0  0  0  0
  150.1357  141.2853  158.2249 C   0  0  0  0  0  0  0  0  0  0  0  0
  151.0223  140.0678  158.5269 C   0  0  0  0  0  0  0  0  0  0  0  0
  150.5584  138.8153  157.7605 C   0  0  1  0  0  0  0  0  0  0  0  0
  149.2792  138.3513  158.3021 N   0  0  0  0  0  0  0  0  0  0  0  0
  149.0880  137.2672  159.0695 C   0  0  0  0  0  0  0  0  0  0  0  0
  150.0031  136.5421  159.4608 O   0  0  0  0  0  0  0  0  0  0  0  0
  147.6339  136.9594  159.4474 C   0  0  0  0  0  0  0  0  0  0  0  0
  147.5427  135.9357  160.5007 N   0  0  0  0  0  0  0  0  0  0  0  0
  147.7416  134.6012  160.0949 C   0  0  0  0  0  0  0  0  0  0  0  0
  147.7072  133.5740  160.9656 C   0  0  0  0  0  0  0  0  0  0  0  0
  147.9250  132.2121  160.5299 N   0  3  0  0  0  0  0  0  0  0  0  0
  147.9295  131.3193  161.3710 O   0  0  0  0  0  0  0  0  0  0  0  0
  148.0995  131.9895  159.3353 O   0  5  0  0  0  0  0  0  0  0  0  0
  147.4522  133.8814  162.3595 C   0  0  0  0  0  0  0  0  0  0  0  0
  147.2645  135.1562  162.7550 C   0  0  0  0  0  0  0  0  0  0  0  0
  147.3092  136.2735  161.8056 C   0  0  0  0  0  0  0  0  0  0  0  0
  147.1489  137.4401  162.1640 O   0  0  0  0  0  0  0  0  0  0  0  0
  150.4742  139.0895  156.2331 C   0  0  1  0  0  0  0  0  0  0  0  0
  150.0620  137.8291  155.4450 C   0  0  0  0  0  0  0  0  0  0  0  0
  150.4990  140.8260  154.0094 H   0  0  0  0  0  0  0  0  0  0  0  0
  148.9177  141.5602  154.2561 H   0  0  0  0  0  0  0  0  0  0  0  0
  149.0309  139.8607  153.8540 H   0  0  0  0  0  0  0  0  0  0  0  0
  148.5601  140.0944  156.2530 H   0  0  0  0  0  0  0  0  0  0  0  0
  151.0467  141.8552  156.3550 H   0  0  0  0  0  0  0  0  0  0  0  0
  149.3980  142.3996  156.5329 H   0  0  0  0  0  0  0  0  0  0  0  0
  150.5273  142.1640  158.7382 H   0  0  0  0  0  0  0  0  0  0  0  0
  149.1318  141.1226  158.6186 H   0  0  0  0  0  0  0  0  0  0  0  0
  152.0515  140.2983  158.2487 H   0  0  0  0  0  0  0  0  0  0  0  0
  151.0359  139.8718  159.5999 H   0  0  0  0  0  0  0  0  0  0  0  0
  151.3136  138.0451  157.9266 H   0  0  0  0  0  0  0  0  0  0  0  0
  148.4648  138.8880  158.0416 H   0  0  0  0  0  0  0  0  0  0  0  0
  147.1478  137.8904  159.7425 H   0  0  0  0  0  0  0  0  0  0  0  0
  147.0870  136.6207  158.5655 H   0  0  0  0  0  0  0  0  0  0  0  0
  147.9317  134.4807  159.0379 H   0  0  0  0  0  0  0  0  0  0  0  0
  147.4122  133.0928  163.0963 H   0  0  0  0  0  0  0  0  0  0  0  0
  147.0777  135.3628  163.7987 H   0  0  0  0  0  0  0  0  0  0  0  0
  151.4850  139.3380  155.9052 H   0  0  0  0  0  0  0  0  0  0  0  0
  149.0112  137.5818  155.5991 H   0  0  0  0  0  0  0  0  0  0  0  0
  150.6555  136.9668  155.7498 H   0  0  0  0  0  0  0  0  0  0  0  0
  150.2188  137.9559  154.3742 H   0  0  0  0  0  0  0  0  0  0  0  0
  1  2  1  0  0  0  0
  1 23  1  0  0  0  0
  1 24  1  0  0  0  0
  1 25  1  0  0  0  0
  2 21  1  0  0  0  0
  2  3  1  0  0  0  0
  2 26  1  0  0  0  0
  3  4  1  0  0  0  0
  3 27  1  0  0  0  0
  3 28  1  0  0  0  0
  4  5  1  0  0  0  0
  4 29  1  0  0  0  0
  4 30  1  0  0  0  0
  5  6  1  0  0  0  0
  5 31  1  0  0  0  0
  5 32  1  0  0  0  0
  6  7  1  0  0  0  0
  6 21  1  0  0  0  0
  6 33  1  0  0  0  0
  7  8  1  0  0  0  0
  7 34  1  0  0  0  0
  8  9  2  0  0  0  0
  8 10  1  0  0  0  0
 10 11  1  0  0  0  0
 10 35  1  0  0  0  0
 10 36  1  0  0  0  0
 11 19  1  0  0  0  0
 11 12  1  0  0  0  0
 12 13  2  0  0  0  0
 12 37  1  0  0  0  0
 13 14  1  0  0  0  0
 13 17  1  0  0  0  0
 14 15  2  0  0  0  0
 14 16  1  0  0  0  0
 17 18  2  0  0  0  0
 17 38  1  0  0  0  0
 18 19  1  0  0  0  0
 18 39  1  0  0  0  0
 19 20  2  0  0  0  0
 21 22  1  0  0  0  0
 21 40  1  0  0  0  0
 22 41  1  0  0  0  0
 22 42  1  0  0  0  0
 22 43  1  0  0  0  0
M  CHG  1  14   1
M  CHG  1  16  -1
M  END
> <s_m_source_file>
AV-unprocessed.smi

> <i_m_source_file_index>
598

> <i_lp_mmshare_version>
43012

> <i_f3d_flags>
0

> <s_epik_input>
W0NIM11bQ0BASF0xW0NIMl1bQ0gyXVtDSDJdW0NASF0oW0NASF0xW0NIM10pW05IXUMoPU8pW0NIMl1uMltjSF1jKFtOK10oPU8pW08tXSlbY0hdW2NIXWMyPU8=

> <s_epik_cmdline>
J2VwaWtfcHl0aG9uJywgJy1waCcsICc3LjAnLCAnLXRuJywgJzgnLCAnLW1hJywgJzIwMCcsICctbWV0YWxfYmluZGluZycsICctaW1hZScsICc8aW5maWxlLm1hZT4nLCAnLW9tYWUnLCAnPG91dGZpbGUubWFlPic=

> <r_lp_tautomer_probability>
1

> <r_epik_Ionization_Penalty>
1.91291e-08

> <r_epik_Ionization_Penalty_Charging>
8.21931e-11

> <r_epik_Ionization_Penalty_Neutral>
1.90469e-08

> <r_epik_State_Penalty>
-0

> <r_epik_Charging_Adjusted_Penalty>
8.21931e-11

> <i_epik_Tot_Q>
0

> <i_epik_Tot_abs_Q>
2

> <r_epik_Metal_State_Penalty>
-0

> <b_epik_Metal_Only>
0

> <s_lp_Force_Field>
OPLS_2005

> <r_lp_Energy>
23.6598

> <b_lp_Chiralities_Consistent>
1

> <s_lp_Variant>
AV-unprocessed.smi:598-1

> <Gold.Version>
5.8.1

> <Gold.Id.Protein>
6NUR|6NUR_protein|mol2

> <Gold.PLP.Fitness>
42.0640

> <Gold.PLP.PLP>
-36.2133

> <Gold.PLP.part.hbond>
-3.0000

> <Gold.PLP.part.metal>
0.0000

> <Gold.PLP.part.buried>
-4.4915

> <Gold.PLP.part.nonpolar>
-29.0057

> <Gold.PLP.part.repulsive>
0.1587

> <Gold.PLP.ligand.clash>
0.0000

> <Gold.PLP.ligand.torsion>
0.5012

> <Gold.PLP.Chemscore.Hbond>
2.2800

> <Gold.PLP.Chemscore.CHOScore>
0.0000

> <Gold.PLP.Chemscore.Metal>
0.0000

> <Gold.Chemscore.Hbonds>
donor molecule, donor type, donor heavy atom, donor atom, acceptor molecule, acceptor atom, score
      P1  H  6896  6907       L1     9  1.00
      P1  H  6931  6943       L1    20  0.65
      P1  H  6934  6947       L1    20  0.66

> <Gold.PLP.Chemscore.Internal.Correction>
0.0130

> <Gold.Rescore>
     Score         DG    S(hbond)    S(metal)    S(lipo)     H(rot)  DE(clash)    DE(int)     intcor
     16.68     -17.31       2.31        0.00      68.86       1.54       0.07       0.56       ----

> <Gold.Chemscore.Fitness>
16.6771

> <Gold.Chemscore.DG>
-17.3096

> <Gold.Chemscore.ZeroCoef>
-5.4800

> <Gold.Chemscore.Hbond>
2.3097

> <Gold.Chemscore.Metal>
0.0000

> <Gold.Chemscore.Lipo>
68.8552

> <Gold.Chemscore.Internal_Hbond>
0.0000

> <Gold.Chemscore.DEClash>
0.0739

> <Gold.Chemscore.DEInternal>
0.5586

> <Gold.Chemscore.Rot>
1.5393

> <Gold.Chemscore.Internal.Correction>
   9.000000E+99

> <Gold.Chemscore.Hbonds>
donor molecule, donor type, donor heavy atom, donor atom, acceptor molecule, acceptor atom, score
      P1  H  6896  6907       L1     9  0.99
      P1  H  6931  6943       L1    20  0.25
      P1  H  6934  6947       L1    20  0.62

> <Gold.Chemscore.Hbond.Weighted>
-7.7142

> <Gold.Chemscore.Metal.Weighted>
-0.0000

> <Gold.Chemscore.Lipo.Weighted>
-8.0561

> <Gold.Chemscore.Internal_Hbond.Weighted>
0.0000

> <Gold.Chemscore.DEClash.Weighted>
0.0739

> <Gold.Chemscore.DEInternal.Weighted>
0.5586

> <Gold.Chemscore.Rot.Weighted>
3.9407

> <Gold.Chemscore.Internal.Correction.Weighted>
   9.000000E+99

> <Gold.Protein.RotatedTorsions>
[ 6907 6896 6895 6894 ] final  -52.31 input  -60.11 | X-H torsion
[ 7974 7965 7964 7962 ] final -155.54 input  175.53 | X-H torsion
[ 8008 7997 7996 7995 ] final  174.23 input   59.86 | X-H torsion
[ 10167 10162 10161 10158 ] final  -65.08 input  -65.29 | X-H torsion
[ 10718 10713 10712 10709 ] final    4.31 input   66.30 | X-H torsion
[ 10763 10752 10751 10750 ] final  -65.99 input  -60.55 | X-H torsion
[ 11005 11000 10999 10996 ] final   30.86 input  -57.11 | X-H torsion

> <Gold.Protein.ActiveResidues>
 VAL166  LYS551  ARG553  GLY616  TRP617  ASP618  TYR619  PRO620  LYS621  CYS622 
 ASP623  PHE694  ASN695  SER759  ASP760  ASP761  ALA762  ILE779  LEU786  VAL792 
 PHE793  MET794  SER795  GLU796  ALA797  LYS798  CYS799  TRP800  GLU811  SER814 

> <Gold.Protein.RotatedAtoms>
  150.8530  134.7860  159.7023 H   0  0  0  0  0  0  0  0  0  0  0  0  # atno 6907 bound_to 6896
  152.4589  134.5225  159.9796 H   0  0  0  0  0  0  0  0  0  0  0  0  # atno 6908 bound_to 6896
  151.5342  133.3405  159.2959 H   0  0  0  0  0  0  0  0  0  0  0  0  # atno 6909 bound_to 6896
  144.7635  140.4235  143.5959 H   0  0  0  0  0  0  0  0  0  0  0  0  # atno 7974 bound_to 7965
  156.0995  140.1440  156.9486 H   0  0  0  0  0  0  0  0  0  0  0  0  # atno 8008 bound_to 7997
  154.4693  140.0915  156.7149 H   0  0  0  0  0  0  0  0  0  0  0  0  # atno 8009 bound_to 7997
  155.4784  140.3444  155.4338 H   0  0  0  0  0  0  0  0  0  0  0  0  # atno 8010 bound_to 7997
  140.5755  143.2321  151.6451 H   0  0  0  0  0  0  0  0  0  0  0  0  # atno 10167 bound_to 10162
  156.8907  130.5686  149.5650 H   0  0  0  0  0  0  0  0  0  0  0  0  # atno 10718 bound_to 10713
  154.3532  135.6132  153.5653 H   0  0  0  0  0  0  0  0  0  0  0  0  # atno 10763 bound_to 10752
  152.9797  135.5797  154.4719 H   0  0  0  0  0  0  0  0  0  0  0  0  # atno 10764 bound_to 10752
  154.4444  135.2851  155.1802 H   0  0  0  0  0  0  0  0  0  0  0  0  # atno 10765 bound_to 10752
  140.2899  134.2876  155.7778 H   0  0  0  0  0  0  0  0  0  0  0  0  # atno 11005 bound_to 11000
  145.6543  139.1570  143.2844 LP  0  0  0  0  0  0  0  0  0  0  0  0  # atno 17320 bound_to 7965
  146.1721  140.6629  142.9228 LP  0  0  0  0  0  0  0  0  0  0  0  0  # atno 17321 bound_to 7965
  139.5140  144.3423  152.0728 LP  0  0  0  0  0  0  0  0  0  0  0  0  # atno 17342 bound_to 10162
  140.2566  144.4112  150.6201 LP  0  0  0  0  0  0  0  0  0  0  0  0  # atno 17343 bound_to 10162
  156.0630  130.5679  150.9232 LP  0  0  0  0  0  0  0  0  0  0  0  0  # atno 17370 bound_to 10713
  157.6085  131.0937  150.8836 LP  0  0  0  0  0  0  0  0  0  0  0  0  # atno 17371 bound_to 10713
  141.2148  133.7579  156.9609 LP  0  0  0  0  0  0  0  0  0  0  0  0  # atno 17394 bound_to 11000
  140.1205  134.9420  157.2196 LP  0  0  0  0  0  0  0  0  0  0  0  0  # atno 17395 bound_to 11000

$$$$
