AV-unprocessed.smi:2731|AV-procd|sdf|10531|dock1
  -GOLD-   2272014573D 1   1.00000     0.00000
 Structure written by MMmdl.
 46 47  0  0  0  0  0  0  0  0  2 V2000
  142.6738  135.7782  152.8762 C   0  0  0  0  0  0  0  0  0  0  0  0
  143.5761  134.9117  152.0644 C   0  0  0  0  0  0  0  0  0  0  0  0
  143.1527  134.0667  151.0867 N   0  3  0  0  0  0  0  0  0  0  0  0
  144.1951  133.4123  150.5552 N   0  0  0  0  0  0  0  0  0  0  0  0
  143.9520  132.4474  149.4823 C   0  0  0  0  0  0  0  0  0  0  0  0
  145.3535  133.8036  151.1594 C   0  0  0  0  0  0  0  0  0  0  0  0
  146.7124  133.2753  150.8314 C   0  0  0  0  0  0  0  0  0  0  0  0
  144.9645  134.7461  152.1202 C   0  0  0  0  0  0  0  0  0  0  0  0
  145.8845  135.4489  153.0826 C   0  0  0  0  0  0  0  0  0  0  0  0
  145.8877  136.9838  152.9329 C   0  0  0  0  0  0  0  0  0  0  0  0
  147.1825  137.5746  153.2647 N   0  0  0  0  0  0  0  0  0  0  0  0
  147.3801  138.5644  154.1496 C   0  0  0  0  0  0  0  0  0  0  0  0
  146.4614  139.1145  154.7592 O   0  0  0  0  0  0  0  0  0  0  0  0
  148.8397  138.9729  154.3876 C   0  0  0  0  0  0  0  0  0  0  0  0
  148.9804  139.9692  155.4580 N   0  0  0  0  0  0  0  0  0  0  0  0
  149.6855  141.2139  155.1270 C   0  0  0  0  0  0  0  0  0  0  0  0
  150.7504  141.5335  156.1900 C   0  0  0  0  0  0  0  0  0  0  0  0
  150.1756  141.5196  157.6212 C   0  0  0  0  0  0  0  0  0  0  0  0
  148.7794  140.8685  157.7410 C   0  0  0  0  0  0  0  0  0  0  0  0
  148.5494  139.7458  156.7211 C   0  0  0  0  0  0  0  0  0  0  0  0
  147.9847  138.7114  157.0758 O   0  0  0  0  0  0  0  0  0  0  0  0
  142.5360  135.3480  153.8682 H   0  0  0  0  0  0  0  0  0  0  0  0
  141.6980  135.8706  152.3985 H   0  0  0  0  0  0  0  0  0  0  0  0
  143.1016  136.7746  152.9842 H   0  0  0  0  0  0  0  0  0  0  0  0
  144.1693  132.9196  148.5241 H   0  0  0  0  0  0  0  0  0  0  0  0
  142.9119  132.1190  149.5025 H   0  0  0  0  0  0  0  0  0  0  0  0
  144.6022  131.5832  149.6202 H   0  0  0  0  0  0  0  0  0  0  0  0
  147.0226  132.5514  151.5847 H   0  0  0  0  0  0  0  0  0  0  0  0
  147.4393  134.0867  150.8083 H   0  0  0  0  0  0  0  0  0  0  0  0
  146.7189  132.7878  149.8566 H   0  0  0  0  0  0  0  0  0  0  0  0
  145.6165  135.1982  154.1089 H   0  0  0  0  0  0  0  0  0  0  0  0
  146.9026  135.0800  152.9555 H   0  0  0  0  0  0  0  0  0  0  0  0
  145.6458  137.2498  151.9037 H   0  0  0  0  0  0  0  0  0  0  0  0
  145.1007  137.4226  153.5485 H   0  0  0  0  0  0  0  0  0  0  0  0
  147.9913  137.1878  152.7998 H   0  0  0  0  0  0  0  0  0  0  0  0
  149.4238  138.0878  154.6445 H   0  0  0  0  0  0  0  0  0  0  0  0
  149.2596  139.3398  153.4498 H   0  0  0  0  0  0  0  0  0  0  0  0
  150.1600  141.1442  154.1477 H   0  0  0  0  0  0  0  0  0  0  0  0
  148.9594  142.0254  155.0627 H   0  0  0  0  0  0  0  0  0  0  0  0
  151.5415  140.7853  156.1205 H   0  0  0  0  0  0  0  0  0  0  0  0
  151.2231  142.4933  155.9806 H   0  0  0  0  0  0  0  0  0  0  0  0
  150.8767  141.0108  158.2837 H   0  0  0  0  0  0  0  0  0  0  0  0
  150.1109  142.5431  157.9914 H   0  0  0  0  0  0  0  0  0  0  0  0
  148.6215  140.4975  158.7544 H   0  0  0  0  0  0  0  0  0  0  0  0
  148.0114  141.6231  157.5668 H   0  0  0  0  0  0  0  0  0  0  0  0
  142.2089  133.9006  150.7610 H   0  0  0  0  0  0  0  0  0  0  0  0
  1  2  1  0  0  0  0
  1 22  1  0  0  0  0
  1 23  1  0  0  0  0
  1 24  1  0  0  0  0
  2  8  1  0  0  0  0
  2  3  2  0  0  0  0
  3  4  1  0  0  0  0
  3 46  1  0  0  0  0
  4  5  1  0  0  0  0
  4  6  1  0  0  0  0
  5 25  1  0  0  0  0
  5 26  1  0  0  0  0
  5 27  1  0  0  0  0
  6  7  1  0  0  0  0
  6  8  2  0  0  0  0
  7 28  1  0  0  0  0
  7 29  1  0  0  0  0
  7 30  1  0  0  0  0
  8  9  1  0  0  0  0
  9 10  1  0  0  0  0
  9 31  1  0  0  0  0
  9 32  1  0  0  0  0
 10 11  1  0  0  0  0
 10 33  1  0  0  0  0
 10 34  1  0  0  0  0
 11 12  1  0  0  0  0
 11 35  1  0  0  0  0
 12 13  2  0  0  0  0
 12 14  1  0  0  0  0
 14 15  1  0  0  0  0
 14 36  1  0  0  0  0
 14 37  1  0  0  0  0
 15 20  1  0  0  0  0
 15 16  1  0  0  0  0
 16 17  1  0  0  0  0
 16 38  1  0  0  0  0
 16 39  1  0  0  0  0
 17 18  1  0  0  0  0
 17 40  1  0  0  0  0
 17 41  1  0  0  0  0
 18 19  1  0  0  0  0
 18 42  1  0  0  0  0
 18 43  1  0  0  0  0
 19 20  1  0  0  0  0
 19 44  1  0  0  0  0
 19 45  1  0  0  0  0
 20 21  2  0  0  0  0
M  CHG  1   3   1
M  END
> <s_m_source_file>
AV-unprocessed.smi

> <i_m_source_file_index>
2731

> <i_lp_mmshare_version>
43012

> <i_f3d_flags>
0

> <s_epik_input>
W0NIM11jMW5uKFtDSDNdKWMoW0NIM10pYzFbQ0gyXVtDSDJdW05IXUMoPU8pW0NIMl1OMltDSDJdW0NIMl1bQ0gyXVtDSDJdQzI9Tw==

> <s_epik_cmdline>
J2VwaWtfcHl0aG9uJywgJy1waCcsICc3LjAnLCAnLXRuJywgJzgnLCAnLW1hJywgJzIwMCcsICctbWV0YWxfYmluZGluZycsICctaW1hZScsICc8aW5maWxlLm1hZT4nLCAnLW9tYWUnLCAnPG91dGZpbGUubWFlPic=

> <r_lp_tautomer_probability>
1

> <r_epik_Ionization_Penalty>
2.35701

> <r_epik_Ionization_Penalty_Charging>
2.357

> <r_epik_Ionization_Penalty_Neutral>
2.49505e-07

> <r_epik_State_Penalty>
2.51177

> <r_epik_Charging_Adjusted_Penalty>
4.86877

> <i_epik_Tot_Q>
1

> <i_epik_Tot_abs_Q>
1

> <r_epik_Metal_State_Penalty>
2.52284

> <b_epik_Metal_Only>
0

> <s_lp_Force_Field>
OPLS_2005

> <r_lp_Energy>
19.064

> <b_lp_Chiralities_Consistent>
1

> <s_lp_Variant>
AV-unprocessed.smi:2731-2

> <Gold.Version>
5.8.1

> <Gold.Id.Protein>
6NUR|6NUR_protein|mol2

> <Gold.PLP.Fitness>
40.5693

> <Gold.PLP.PLP>
-32.8882

> <Gold.PLP.part.hbond>
-2.0000

> <Gold.PLP.part.metal>
0.0000

> <Gold.PLP.part.buried>
-6.2749

> <Gold.PLP.part.nonpolar>
-25.1537

> <Gold.PLP.part.repulsive>
0.1137

> <Gold.PLP.ligand.clash>
0.0000

> <Gold.PLP.ligand.torsion>
0.2646

> <Gold.PLP.Chemscore.Hbond>
2.7280

> <Gold.PLP.Chemscore.CHOScore>
0.0000

> <Gold.PLP.Chemscore.Metal>
0.0000

> <Gold.Chemscore.Hbonds>
donor molecule, donor type, donor heavy atom, donor atom, acceptor molecule, acceptor atom, score
      L1  H     3    46       P1 10186  1.73
      L1  H    11    35       P1  7948  1.00

> <Gold.PLP.Chemscore.Internal.Correction>
0.0262

> <Gold.Rescore>
     Score         DG    S(hbond)    S(metal)    S(lipo)     H(rot)  DE(clash)    DE(int)     intcor
     15.53     -15.91       1.91        0.00      74.96       1.85       0.04       0.34       ----

> <Gold.Chemscore.Fitness>
15.5262

> <Gold.Chemscore.DG>
-15.9103

> <Gold.Chemscore.ZeroCoef>
-5.4800

> <Gold.Chemscore.Hbond>
1.9150

> <Gold.Chemscore.Metal>
0.0000

> <Gold.Chemscore.Lipo>
74.9608

> <Gold.Chemscore.Internal_Hbond>
0.0000

> <Gold.Chemscore.DEClash>
0.0436

> <Gold.Chemscore.DEInternal>
0.3405

> <Gold.Chemscore.Rot>
1.8501

> <Gold.Chemscore.Internal.Correction>
   9.000000E+99

> <Gold.Chemscore.Hbonds>
donor molecule, donor type, donor heavy atom, donor atom, acceptor molecule, acceptor atom, score
      L1  H     3    46       P1 10186  0.51
      L1  H    11    35       P1  7948  0.99

> <Gold.Chemscore.Hbond.Weighted>
-6.3961

> <Gold.Chemscore.Metal.Weighted>
-0.0000

> <Gold.Chemscore.Lipo.Weighted>
-8.7704

> <Gold.Chemscore.Internal_Hbond.Weighted>
0.0000

> <Gold.Chemscore.DEClash.Weighted>
0.0436

> <Gold.Chemscore.DEInternal.Weighted>
0.3405

> <Gold.Chemscore.Rot.Weighted>
4.7362

> <Gold.Chemscore.Internal.Correction.Weighted>
   9.000000E+99

> <Gold.Protein.RotatedTorsions>
[ 6907 6896 6895 6894 ] final -130.03 input  -60.11 | X-H torsion
[ 7974 7965 7964 7962 ] final  -53.77 input  175.53 | X-H torsion
[ 8008 7997 7996 7995 ] final -156.18 input   59.86 | X-H torsion
[ 10167 10162 10161 10158 ] final  -26.99 input  -65.29 | X-H torsion
[ 10718 10713 10712 10709 ] final   41.61 input   66.30 | X-H torsion
[ 10763 10752 10751 10750 ] final  -82.92 input  -60.55 | X-H torsion
[ 11005 11000 10999 10996 ] final -169.84 input  -57.11 | X-H torsion

> <Gold.Protein.ActiveResidues>
 VAL166  LYS551  ARG553  GLY616  TRP617  ASP618  TYR619  PRO620  LYS621  CYS622 
 ASP623  PHE694  ASN695  SER759  ASP760  ASP761  ALA762  ILE779  LEU786  VAL792 
 PHE793  MET794  SER795  GLU796  ALA797  LYS798  CYS799  TRP800  GLU811  SER814 

> <Gold.Protein.RotatedAtoms>
  150.9352  133.6720  159.2802 H   0  0  0  0  0  0  0  0  0  0  0  0  # atno 6907 bound_to 6896
  151.4129  135.0986  159.9600 H   0  0  0  0  0  0  0  0  0  0  0  0  # atno 6908 bound_to 6896
  152.5044  133.8821  159.7406 H   0  0  0  0  0  0  0  0  0  0  0  0  # atno 6909 bound_to 6896
  145.8931  140.8054  142.9781 H   0  0  0  0  0  0  0  0  0  0  0  0  # atno 7974 bound_to 7965
  155.7132  140.0781  157.2362 H   0  0  0  0  0  0  0  0  0  0  0  0  # atno 8008 bound_to 7997
  154.4055  140.1626  156.2373 H   0  0  0  0  0  0  0  0  0  0  0  0  # atno 8009 bound_to 7997
  155.9264  140.3394  155.6216 H   0  0  0  0  0  0  0  0  0  0  0  0  # atno 8010 bound_to 7997
  140.7280  143.4131  151.1072 H   0  0  0  0  0  0  0  0  0  0  0  0  # atno 10167 bound_to 10162
  157.3955  130.7830  149.7304 H   0  0  0  0  0  0  0  0  0  0  0  0  # atno 10718 bound_to 10713
  154.5815  135.5574  153.7190 H   0  0  0  0  0  0  0  0  0  0  0  0  # atno 10763 bound_to 10752
  153.0083  135.6321  154.1975 H   0  0  0  0  0  0  0  0  0  0  0  0  # atno 10764 bound_to 10752
  154.1916  135.2882  155.3000 H   0  0  0  0  0  0  0  0  0  0  0  0  # atno 10765 bound_to 10752
  140.5262  134.5661  157.5062 H   0  0  0  0  0  0  0  0  0  0  0  0  # atno 11005 bound_to 11000
  144.6731  140.1561  143.7426 LP  0  0  0  0  0  0  0  0  0  0  0  0  # atno 17320 bound_to 7965
  145.8883  139.2361  143.1564 LP  0  0  0  0  0  0  0  0  0  0  0  0  # atno 17321 bound_to 7965
  139.7767  143.8415  152.3130 LP  0  0  0  0  0  0  0  0  0  0  0  0  # atno 17342 bound_to 10162
  139.8352  144.7235  150.9400 LP  0  0  0  0  0  0  0  0  0  0  0  0  # atno 17343 bound_to 10162
  155.9809  130.4025  150.3501 LP  0  0  0  0  0  0  0  0  0  0  0  0  # atno 17370 bound_to 10713
  157.1623  131.0348  151.2835 LP  0  0  0  0  0  0  0  0  0  0  0  0  # atno 17371 bound_to 10713
  139.9579  134.7504  156.0302 LP  0  0  0  0  0  0  0  0  0  0  0  0  # atno 17394 bound_to 11000
  141.1307  133.6587  156.3456 LP  0  0  0  0  0  0  0  0  0  0  0  0  # atno 17395 bound_to 11000

$$$$
