AV-unprocessed.smi:36|AV-procd|sdf|282|dock6
  -GOLD-   2262016 53D 1   1.00000     0.00000
 Structure written by MMmdl.
 64 67  0  0  0  0  0  0  0  0  1 V2000
  152.7988  129.0429  157.8954 C   0  0  0  0  0  0  0  0  0  0  0  0
  152.8579  129.3360  156.3866 C   0  0  0  0  0  0  0  0  0  0  0  0
  152.5828  128.0396  155.6058 C   0  0  0  0  0  0  0  0  0  0  0  0
  151.8025  130.3926  156.0198 C   0  0  0  0  0  0  0  0  0  0  0  0
  154.5961  130.0148  155.9506 Si  0  0  0  0  0  0  0  0  0  0  0  0
  155.9379  128.8013  156.5303 C   0  0  0  0  0  0  0  0  0  0  0  0
  154.7685  130.3186  154.0820 C   0  0  0  0  0  0  0  0  0  0  0  0
  154.8512  131.4751  156.7697 O   0  0  0  0  0  0  0  0  0  0  0  0
  154.5493  131.6819  158.1347 C   0  0  0  0  0  0  0  0  0  0  0  0
  155.1816  133.0012  158.6024 C   0  0  1  0  0  0  0  0  0  0  0  0
  154.5323  133.4979  159.7677 O   0  0  0  0  0  0  0  0  0  0  0  0
  155.4218  134.2625  160.5275 C   0  0  2  0  0  0  0  0  0  0  0  0
  154.9376  135.6740  160.5402 N   0  0  0  0  0  0  0  0  0  0  0  0
  154.5196  136.4387  161.6081 C   0  0  0  0  0  0  0  0  0  0  0  0
  154.1457  137.6548  161.3107 N   0  0  0  0  0  0  0  0  0  0  0  0
  154.3159  137.7323  159.9338 C   0  0  0  0  0  0  0  0  0  0  0  0
  154.1072  138.7544  158.9711 C   0  0  0  0  0  0  0  0  0  0  0  0
  153.6379  139.9653  159.3534 N   0  0  0  0  0  0  0  0  0  0  0  0
  154.0320  140.7556  160.5065 C   0  0  0  0  0  0  0  0  0  0  0  0
  154.9305  140.3983  161.2690 O   0  0  0  0  0  0  0  0  0  0  0  0
  153.3305  142.0720  160.6777 C   0  0  0  0  0  0  0  0  0  0  0  0
  153.3135  142.7036  161.9418 C   0  0  0  0  0  0  0  0  0  0  0  0
  152.6426  143.9294  162.1183 C   0  0  0  0  0  0  0  0  0  0  0  0
  151.9769  144.5312  161.0339 C   0  0  0  0  0  0  0  0  0  0  0  0
  151.9793  143.9042  159.7737 C   0  0  0  0  0  0  0  0  0  0  0  0
  152.6495  142.6780  159.5960 C   0  0  0  0  0  0  0  0  0  0  0  0
  154.3851  138.4571  157.6741 N   0  0  0  0  0  0  0  0  0  0  0  0
  154.8402  137.2450  157.3431 C   0  0  0  0  0  0  0  0  0  0  0  0
  155.0852  136.2003  158.1371 N   0  0  0  0  0  0  0  0  0  0  0  0
  154.8077  136.4922  159.4403 C   0  0  0  0  0  0  0  0  0  0  0  0
  156.7978  134.1861  159.8559 C   0  0  0  0  0  0  0  0  0  0  0  0
  156.6661  132.9537  158.9844 C   0  0  1  0  0  0  0  0  0  0  0  0
  156.9991  131.7851  159.7095 O   0  0  0  0  0  0  0  0  0  0  0  0
  151.8219  128.6550  158.1860 H   0  0  0  0  0  0  0  0  0  0  0  0
  152.9802  129.9423  158.4843 H   0  0  0  0  0  0  0  0  0  0  0  0
  153.5454  128.3030  158.1854 H   0  0  0  0  0  0  0  0  0  0  0  0
  153.3445  127.2850  155.8028 H   0  0  0  0  0  0  0  0  0  0  0  0
  152.5576  128.2145  154.5318 H   0  0  0  0  0  0  0  0  0  0  0  0
  151.6192  127.6100  155.8828 H   0  0  0  0  0  0  0  0  0  0  0  0
  150.7949  130.0419  156.2456 H   0  0  0  0  0  0  0  0  0  0  0  0
  151.8366  130.6340  154.9570 H   0  0  0  0  0  0  0  0  0  0  0  0
  151.9584  131.3196  156.5720 H   0  0  0  0  0  0  0  0  0  0  0  0
  155.8568  127.8397  156.0239 H   0  0  0  0  0  0  0  0  0  0  0  0
  155.8726  128.6120  157.6015 H   0  0  0  0  0  0  0  0  0  0  0  0
  156.9368  129.1882  156.3305 H   0  0  0  0  0  0  0  0  0  0  0  0
  154.6246  129.4008  153.5126 H   0  0  0  0  0  0  0  0  0  0  0  0
  155.7563  130.7046  153.8309 H   0  0  0  0  0  0  0  0  0  0  0  0
  154.0377  131.0423  153.7215 H   0  0  0  0  0  0  0  0  0  0  0  0
  153.4663  131.7301  158.2508 H   0  0  0  0  0  0  0  0  0  0  0  0
  154.8924  130.8437  158.7395 H   0  0  0  0  0  0  0  0  0  0  0  0
  155.0521  133.7517  157.8209 H   0  0  0  0  0  0  0  0  0  0  0  0
  155.4140  133.9348  161.5678 H   0  0  0  0  0  0  0  0  0  0  0  0
  154.5021  136.0663  162.6218 H   0  0  0  0  0  0  0  0  0  0  0  0
  152.9015  140.3544  158.7828 H   0  0  0  0  0  0  0  0  0  0  0  0
  153.8177  142.2540  162.7851 H   0  0  0  0  0  0  0  0  0  0  0  0
  152.6379  144.4069  163.0870 H   0  0  0  0  0  0  0  0  0  0  0  0
  151.4619  145.4706  161.1697 H   0  0  0  0  0  0  0  0  0  0  0  0
  151.4638  144.3629  158.9428 H   0  0  0  0  0  0  0  0  0  0  0  0
  152.6297  142.2106  158.6222 H   0  0  0  0  0  0  0  0  0  0  0  0
  155.0363  137.0912  156.2923 H   0  0  0  0  0  0  0  0  0  0  0  0
  156.9538  135.0673  159.2312 H   0  0  0  0  0  0  0  0  0  0  0  0
  157.5989  134.1342  160.5941 H   0  0  0  0  0  0  0  0  0  0  0  0
  157.3101  133.0077  158.1061 H   0  0  0  0  0  0  0  0  0  0  0  0
  157.4501  131.1912  159.1287 H   0  0  0  0  0  0  0  0  0  0  0  0
  1  2  1  0  0  0  0
  1 34  1  0  0  0  0
  1 35  1  0  0  0  0
  1 36  1  0  0  0  0
  2  3  1  0  0  0  0
  2  4  1  0  0  0  0
  2  5  1  0  0  0  0
  3 37  1  0  0  0  0
  3 38  1  0  0  0  0
  3 39  1  0  0  0  0
  4 40  1  0  0  0  0
  4 41  1  0  0  0  0
  4 42  1  0  0  0  0
  5  6  1  0  0  0  0
  5  7  1  0  0  0  0
  5  8  1  0  0  0  0
  6 43  1  0  0  0  0
  6 44  1  0  0  0  0
  6 45  1  0  0  0  0
  7 46  1  0  0  0  0
  7 47  1  0  0  0  0
  7 48  1  0  0  0  0
  8  9  1  0  0  0  0
  9 10  1  0  0  0  0
  9 49  1  0  0  0  0
  9 50  1  0  0  0  0
 10 32  1  0  0  0  0
 10 11  1  0  0  0  0
 10 51  1  0  0  0  0
 11 12  1  0  0  0  0
 12 13  1  0  0  0  0
 12 31  1  0  0  0  0
 12 52  1  0  0  0  0
 13 30  1  0  0  0  0
 13 14  1  0  0  0  0
 14 15  2  0  0  0  0
 14 53  1  0  0  0  0
 15 16  1  0  0  0  0
 16 30  2  0  0  0  0
 16 17  1  0  0  0  0
 17 18  1  0  0  0  0
 17 27  2  0  0  0  0
 18 19  1  0  0  0  0
 18 54  1  0  0  0  0
 19 20  2  0  0  0  0
 19 21  1  0  0  0  0
 21 26  1  0  0  0  0
 21 22  2  0  0  0  0
 22 23  1  0  0  0  0
 22 55  1  0  0  0  0
 23 24  2  0  0  0  0
 23 56  1  0  0  0  0
 24 25  1  0  0  0  0
 24 57  1  0  0  0  0
 25 26  2  0  0  0  0
 25 58  1  0  0  0  0
 26 59  1  0  0  0  0
 27 28  1  0  0  0  0
 28 29  2  0  0  0  0
 28 60  1  0  0  0  0
 29 30  1  0  0  0  0
 31 32  1  0  0  0  0
 31 61  1  0  0  0  0
 31 62  1  0  0  0  0
 32 33  1  0  0  0  0
 32 63  1  0  0  0  0
 33 64  1  0  0  0  0
M  END
> <s_m_source_file>
AV-unprocessed.smi

> <i_m_source_file_index>
36

> <i_lp_mmshare_version>
43012

> <i_f3d_flags>
0

> <s_epik_input>
W0NIM11DKFtDSDNdKShbQ0gzXSlbU2ldKFtDSDNdKShbQ0gzXSlPW0NIMl1bQ0BASF0xT1tDQEhdKFtDSDJdW0NASF0xW09IXSluKFtjSF1uMiljKGMyMyluW2NIXW5jM1tOSF1DKD1PKWM0W2NIXVtjSF1bY0hdW2NIXVtjSF00

> <s_epik_cmdline>
J2VwaWtfcHl0aG9uJywgJy1waCcsICc3LjAnLCAnLXRuJywgJzgnLCAnLW1hJywgJzIwMCcsICctbWV0YWxfYmluZGluZycsICctaW1hZScsICc8aW5maWxlLm1hZT4nLCAnLW9tYWUnLCAnPG91dGZpbGUubWFlPic=

> <r_lp_tautomer_probability>
1

> <r_epik_Ionization_Penalty>
0.00150433

> <r_epik_Ionization_Penalty_Charging>
0

> <r_epik_Ionization_Penalty_Neutral>
0.00150433

> <r_epik_State_Penalty>
0.00724046

> <r_epik_Charging_Adjusted_Penalty>
0.00724046

> <i_epik_Tot_Q>
0

> <i_epik_Tot_abs_Q>
0

> <r_epik_Metal_State_Penalty>
0.323355

> <b_epik_Metal_Only>
0

> <s_epik_Chemistry_Notes>
This compound contains an acetal/aminal-like group ( X-CH(R)-Y where X, Y are N, S, or O) that may be acid/base labile, releasing an aldehyde.

> <s_lp_Force_Field>
OPLS_2005

> <r_lp_Energy>
37.9666

> <b_lp_Chiralities_Consistent>
1

> <s_lp_Variant>
AV-unprocessed.smi:36-4

> <Gold.Version>
5.8.1

> <Gold.Id.Protein>
6NUR|6NUR_protein|mol2

> <Gold.PLP.Fitness>
51.0081

> <Gold.PLP.PLP>
-47.6268

> <Gold.PLP.part.hbond>
-1.9298

> <Gold.PLP.part.metal>
0.0000

> <Gold.PLP.part.buried>
-6.1584

> <Gold.PLP.part.nonpolar>
-40.1184

> <Gold.PLP.part.repulsive>
0.0882

> <Gold.PLP.ligand.clash>
0.0000

> <Gold.PLP.ligand.torsion>
0.9927

> <Gold.PLP.Chemscore.Hbond>
1.7520

> <Gold.PLP.Chemscore.CHOScore>
0.0000

> <Gold.PLP.Chemscore.Metal>
0.0000

> <Gold.Chemscore.Hbonds>
donor molecule, donor type, donor heavy atom, donor atom, acceptor molecule, acceptor atom, score
      P1  H  6896  6909       L1    11  0.99
      P1  H  7997  8009       L1    27  0.75

> <Gold.PLP.Chemscore.Internal.Correction>
0.1106

> <Gold.Rescore>
     Score         DG    S(hbond)    S(metal)    S(lipo)     H(rot)  DE(clash)    DE(int)     intcor
     15.41     -17.50       1.85        0.00     109.04       2.70       0.46       1.64       ----

> <Gold.Chemscore.Fitness>
15.4097

> <Gold.Chemscore.DG>
-17.5041

> <Gold.Chemscore.ZeroCoef>
-5.4800

> <Gold.Chemscore.Hbond>
1.8528

> <Gold.Chemscore.Metal>
0.0000

> <Gold.Chemscore.Lipo>
109.0444

> <Gold.Chemscore.Internal_Hbond>
0.0000

> <Gold.Chemscore.DEClash>
0.4557

> <Gold.Chemscore.DEInternal>
1.6387

> <Gold.Chemscore.Rot>
2.7041

> <Gold.Chemscore.Internal.Correction>
   9.000000E+99

> <Gold.Chemscore.Hbonds>
donor molecule, donor type, donor heavy atom, donor atom, acceptor molecule, acceptor atom, score
      P1  H  6896  6909       L1    11  0.81
      P1  H  7997  8009       L1    27  0.15

> <Gold.Chemscore.Hbond.Weighted>
-6.1884

> <Gold.Chemscore.Metal.Weighted>
-0.0000

> <Gold.Chemscore.Lipo.Weighted>
-12.7582

> <Gold.Chemscore.Internal_Hbond.Weighted>
0.0000

> <Gold.Chemscore.DEClash.Weighted>
0.4557

> <Gold.Chemscore.DEInternal.Weighted>
1.6387

> <Gold.Chemscore.Rot.Weighted>
6.9225

> <Gold.Chemscore.Internal.Correction.Weighted>
   9.000000E+99

> <Gold.Protein.RotatedTorsions>
[ 6907 6896 6895 6894 ] final -149.32 input  -60.11 | X-H torsion
[ 7974 7965 7964 7962 ] final   31.99 input  175.53 | X-H torsion
[ 8008 7997 7996 7995 ] final  140.90 input   59.86 | X-H torsion
[ 10167 10162 10161 10158 ] final  149.85 input  -65.29 | X-H torsion
[ 10718 10713 10712 10709 ] final  -66.38 input   66.30 | X-H torsion
[ 10763 10752 10751 10750 ] final   56.35 input  -60.55 | X-H torsion
[ 11005 11000 10999 10996 ] final -176.40 input  -57.11 | X-H torsion

> <Gold.Protein.ActiveResidues>
 VAL166  LYS551  ARG553  GLY616  TRP617  ASP618  TYR619  PRO620  LYS621  CYS622 
 ASP623  PHE694  ASN695  SER759  ASP760  ASP761  ALA762  ILE779  LEU786  VAL792 
 PHE793  MET794  SER795  GLU796  ALA797  LYS798  CYS799  TRP800  GLU811  SER814 

> <Gold.Protein.RotatedAtoms>
  151.1824  133.4717  159.2593 H   0  0  0  0  0  0  0  0  0  0  0  0  # atno 6907 bound_to 6896
  151.1245  135.0097  159.8564 H   0  0  0  0  0  0  0  0  0  0  0  0  # atno 6908 bound_to 6896
  152.5457  134.1732  159.8658 H   0  0  0  0  0  0  0  0  0  0  0  0  # atno 6909 bound_to 6896
  146.1515  139.6584  142.9095 H   0  0  0  0  0  0  0  0  0  0  0  0  # atno 7974 bound_to 7965
  156.2973  140.2329  156.4477 H   0  0  0  0  0  0  0  0  0  0  0  0  # atno 8008 bound_to 7997
  154.8129  140.0442  157.1376 H   0  0  0  0  0  0  0  0  0  0  0  0  # atno 8009 bound_to 7997
  154.9403  140.3028  155.5128 H   0  0  0  0  0  0  0  0  0  0  0  0  # atno 8010 bound_to 7997
  139.4857  144.5569  151.7301 H   0  0  0  0  0  0  0  0  0  0  0  0  # atno 10167 bound_to 10162
  156.0616  130.4261  150.1700 H   0  0  0  0  0  0  0  0  0  0  0  0  # atno 10718 bound_to 10713
  152.9830  135.5679  154.5214 H   0  0  0  0  0  0  0  0  0  0  0  0  # atno 10763 bound_to 10752
  154.4702  135.2784  155.1651 H   0  0  0  0  0  0  0  0  0  0  0  0  # atno 10764 bound_to 10752
  154.3202  135.6270  153.5557 H   0  0  0  0  0  0  0  0  0  0  0  0  # atno 10765 bound_to 10752
  140.4525  134.6330  157.4807 H   0  0  0  0  0  0  0  0  0  0  0  0  # atno 11005 bound_to 11000
  145.4812  141.0438  143.2645 LP  0  0  0  0  0  0  0  0  0  0  0  0  # atno 17320 bound_to 7965
  144.7910  139.6329  143.7113 LP  0  0  0  0  0  0  0  0  0  0  0  0  # atno 17321 bound_to 7965
  140.5132  144.0992  150.6001 LP  0  0  0  0  0  0  0  0  0  0  0  0  # atno 17342 bound_to 10162
  140.3925  143.2745  152.0043 LP  0  0  0  0  0  0  0  0  0  0  0  0  # atno 17343 bound_to 10162
  156.9768  130.9852  151.3446 LP  0  0  0  0  0  0  0  0  0  0  0  0  # atno 17370 bound_to 10713
  157.5628  130.8257  149.8288 LP  0  0  0  0  0  0  0  0  0  0  0  0  # atno 17371 bound_to 10713
  139.9997  134.6855  155.9550 LP  0  0  0  0  0  0  0  0  0  0  0  0  # atno 17394 bound_to 11000
  141.1658  133.6537  156.4473 LP  0  0  0  0  0  0  0  0  0  0  0  0  # atno 17395 bound_to 11000

$$$$
