AV-unprocessed.smi:2024|AV-procd|sdf|8196|dock3
  -GOLD-   2272010453D 1   1.00000     0.00000
 Structure written by MMmdl.
 42 43  0  0  0  0  0  0  0  0  2 V2000
  152.5165  143.2250  159.3096 C   0  0  0  0  0  0  0  0  0  0  0  0
  151.4119  142.4102  158.8271 N   0  0  0  0  0  0  0  0  0  0  0  0
  151.2227  142.5639  157.3876 C   0  0  0  0  0  0  0  0  0  0  0  0
  150.0484  141.7089  156.8775 C   0  0  0  0  0  0  0  0  0  0  0  0
  150.2503  140.2807  157.1679 N   0  0  0  0  0  0  0  0  0  0  0  0
  149.2312  139.3682  156.5788 C   0  0  0  0  0  0  0  0  0  0  0  0
  147.7796  139.8493  156.8150 C   0  0  0  0  0  0  0  0  0  0  0  0
  149.4283  139.2300  155.0476 C   0  0  0  0  0  0  0  0  0  0  0  0
  149.3402  137.9311  157.1637 C   0  0  0  0  0  0  0  0  0  0  0  0
  148.5973  137.7821  158.4122 N   0  0  0  0  0  0  0  0  0  0  0  0
  149.0494  137.1659  159.5115 C   0  0  0  0  0  0  0  0  0  0  0  0
  150.1830  136.6803  159.5195 O   0  0  0  0  0  0  0  0  0  0  0  0
  148.1613  137.1476  160.5314 N   0  5  0  0  0  0  0  0  0  0  0  0
  147.9562  136.0142  161.2218 C   0  0  0  0  0  0  0  0  0  0  0  0
  147.9616  134.8027  160.6538 N   0  0  0  0  0  0  0  0  0  0  0  0
  147.7310  133.7647  161.5585 C   0  0  0  0  0  0  0  0  0  0  0  0
  147.5558  134.1953  162.8470 C   0  0  0  0  0  0  0  0  0  0  0  0
  147.6749  135.9280  162.9631 S   0  0  0  0  0  0  0  0  0  0  0  0
  150.4487  140.1340  158.6191 C   0  0  0  0  0  0  0  0  0  0  0  0
  151.6206  140.9956  159.1232 C   0  0  0  0  0  0  0  0  0  0  0  0
  152.3379  144.2802  159.1005 H   0  0  0  0  0  0  0  0  0  0  0  0
  153.4553  142.9383  158.8332 H   0  0  0  0  0  0  0  0  0  0  0  0
  152.6352  143.1153  160.3880 H   0  0  0  0  0  0  0  0  0  0  0  0
  151.0346  143.6119  157.1516 H   0  0  0  0  0  0  0  0  0  0  0  0
  152.1348  142.2838  156.8579 H   0  0  0  0  0  0  0  0  0  0  0  0
  149.1231  142.0634  157.3321 H   0  0  0  0  0  0  0  0  0  0  0  0
  149.9600  141.8784  155.8060 H   0  0  0  0  0  0  0  0  0  0  0  0
  147.0630  139.1603  156.3665 H   0  0  0  0  0  0  0  0  0  0  0  0
  147.5921  140.8280  156.3735 H   0  0  0  0  0  0  0  0  0  0  0  0
  147.5351  139.9103  157.8752 H   0  0  0  0  0  0  0  0  0  0  0  0
  148.8046  138.4370  154.6335 H   0  0  0  0  0  0  0  0  0  0  0  0
  150.4627  138.9935  154.7949 H   0  0  0  0  0  0  0  0  0  0  0  0
  149.1573  140.1392  154.5114 H   0  0  0  0  0  0  0  0  0  0  0  0
  148.9927  137.1871  156.4461 H   0  0  0  0  0  0  0  0  0  0  0  0
  150.3850  137.6792  157.3538 H   0  0  0  0  0  0  0  0  0  0  0  0
  147.6634  138.1647  158.4373 H   0  0  0  0  0  0  0  0  0  0  0  0
  147.7088  132.7474  161.1969 H   0  0  0  0  0  0  0  0  0  0  0  0
  147.3660  133.6038  163.7298 H   0  0  0  0  0  0  0  0  0  0  0  0
  149.5420  140.4096  159.1581 H   0  0  0  0  0  0  0  0  0  0  0  0
  150.6685  139.1001  158.8784 H   0  0  0  0  0  0  0  0  0  0  0  0
  152.5496  140.6495  158.6667 H   0  0  0  0  0  0  0  0  0  0  0  0
  151.7324  140.8577  160.1991 H   0  0  0  0  0  0  0  0  0  0  0  0
  1  2  1  0  0  0  0
  1 21  1  0  0  0  0
  1 22  1  0  0  0  0
  1 23  1  0  0  0  0
  2 20  1  0  0  0  0
  2  3  1  0  0  0  0
  3  4  1  0  0  0  0
  3 24  1  0  0  0  0
  3 25  1  0  0  0  0
  4  5  1  0  0  0  0
  4 26  1  0  0  0  0
  4 27  1  0  0  0  0
  5  6  1  0  0  0  0
  5 19  1  0  0  0  0
  6  7  1  0  0  0  0
  6  8  1  0  0  0  0
  6  9  1  0  0  0  0
  7 28  1  0  0  0  0
  7 29  1  0  0  0  0
  7 30  1  0  0  0  0
  8 31  1  0  0  0  0
  8 32  1  0  0  0  0
  8 33  1  0  0  0  0
  9 10  1  0  0  0  0
  9 34  1  0  0  0  0
  9 35  1  0  0  0  0
 10 11  1  0  0  0  0
 10 36  1  0  0  0  0
 11 12  2  0  0  0  0
 11 13  1  0  0  0  0
 13 14  1  0  0  0  0
 14 18  1  0  0  0  0
 14 15  2  0  0  0  0
 15 16  1  0  0  0  0
 16 17  2  0  0  0  0
 16 37  1  0  0  0  0
 17 18  1  0  0  0  0
 17 38  1  0  0  0  0
 19 20  1  0  0  0  0
 19 39  1  0  0  0  0
 19 40  1  0  0  0  0
 20 41  1  0  0  0  0
 20 42  1  0  0  0  0
M  CHG  1  13  -1
M  END
> <s_m_source_file>
AV-unprocessed.smi

> <i_m_source_file_index>
2024

> <i_lp_mmshare_version>
43012

> <i_f3d_flags>
0

> <s_epik_input>
W0NIM11OMVtDSDJdW0NIMl1OKFtDSDJdW0NIMl0xKUMoW0NIM10pKFtDSDNdKVtDSDJdW05IXUMoPU8pW05IXWMybltjSF1bY0hdczI=

> <s_epik_cmdline>
J2VwaWtfcHl0aG9uJywgJy1waCcsICc3LjAnLCAnLXRuJywgJzgnLCAnLW1hJywgJzIwMCcsICctbWV0YWxfYmluZGluZycsICctaW1hZScsICc8aW5maWxlLm1hZT4nLCAnLW9tYWUnLCAnPG91dGZpbGUubWFlPic=

> <r_lp_tautomer_probability>
0.999

> <r_epik_Ionization_Penalty>
10.1013

> <r_epik_Ionization_Penalty_Charging>
5.92713

> <r_epik_Ionization_Penalty_Neutral>
4.17417

> <r_epik_State_Penalty>
8.064

> <r_epik_Charging_Adjusted_Penalty>
13.9911

> <i_epik_Tot_Q>
-1

> <i_epik_Tot_abs_Q>
1

> <r_epik_Metal_State_Penalty>
4.03005

> <b_epik_Metal_Only>
1

> <s_lp_Force_Field>
OPLS_2005

> <r_lp_Energy>
45.4421

> <b_lp_Chiralities_Consistent>
1

> <s_lp_Variant>
AV-unprocessed.smi:2024-6

> <Gold.Version>
5.8.1

> <Gold.Id.Protein>
6NUR|6NUR_protein|mol2

> <Gold.PLP.Fitness>
41.1155

> <Gold.PLP.PLP>
-32.9826

> <Gold.PLP.part.hbond>
-3.0000

> <Gold.PLP.part.metal>
0.0000

> <Gold.PLP.part.buried>
-5.1881

> <Gold.PLP.part.nonpolar>
-26.1670

> <Gold.PLP.part.repulsive>
0.1411

> <Gold.PLP.ligand.clash>
0.4593

> <Gold.PLP.ligand.torsion>
1.5259

> <Gold.PLP.Chemscore.Hbond>
3.8435

> <Gold.PLP.Chemscore.CHOScore>
0.0000

> <Gold.PLP.Chemscore.Metal>
0.0000

> <Gold.Chemscore.Hbonds>
donor molecule, donor type, donor heavy atom, donor atom, acceptor molecule, acceptor atom, score
      P1  H  6896  6908       L1    12  1.00
      P1  H  6931  6943       L1    13  1.57
      P1  H  6934  6947       L1    13  0.98

> <Gold.PLP.Chemscore.Internal.Correction>
0.1136

> <Gold.Rescore>
     Score         DG    S(hbond)    S(metal)    S(lipo)     H(rot)  DE(clash)    DE(int)     intcor
     13.67     -16.38       2.05        0.00      68.28       1.53       0.01       2.70       ----

> <Gold.Chemscore.Fitness>
13.6704

> <Gold.Chemscore.DG>
-16.3802

> <Gold.Chemscore.ZeroCoef>
-5.4800

> <Gold.Chemscore.Hbond>
2.0452

> <Gold.Chemscore.Metal>
0.0000

> <Gold.Chemscore.Lipo>
68.2835

> <Gold.Chemscore.Internal_Hbond>
0.0000

> <Gold.Chemscore.DEClash>
0.0062

> <Gold.Chemscore.DEInternal>
2.7036

> <Gold.Chemscore.Rot>
1.5312

> <Gold.Chemscore.Internal.Correction>
   9.000000E+99

> <Gold.Chemscore.Hbonds>
donor molecule, donor type, donor heavy atom, donor atom, acceptor molecule, acceptor atom, score
      P1  H  6896  6908       L1    12  0.95
      P1  H  6931  6943       L1    13  0.08
      P1  H  6934  6947       L1    13  0.45

> <Gold.Chemscore.Hbond.Weighted>
-6.8309

> <Gold.Chemscore.Metal.Weighted>
-0.0000

> <Gold.Chemscore.Lipo.Weighted>
-7.9892

> <Gold.Chemscore.Internal_Hbond.Weighted>
0.0000

> <Gold.Chemscore.DEClash.Weighted>
0.0062

> <Gold.Chemscore.DEInternal.Weighted>
2.7036

> <Gold.Chemscore.Rot.Weighted>
3.9198

> <Gold.Chemscore.Internal.Correction.Weighted>
   9.000000E+99

> <Gold.Protein.RotatedTorsions>
[ 6907 6896 6895 6894 ] final -173.35 input  -60.11 | X-H torsion
[ 7974 7965 7964 7962 ] final  -89.44 input  175.53 | X-H torsion
[ 8008 7997 7996 7995 ] final   14.87 input   59.86 | X-H torsion
[ 10167 10162 10161 10158 ] final -172.53 input  -65.29 | X-H torsion
[ 10718 10713 10712 10709 ] final  -99.30 input   66.30 | X-H torsion
[ 10763 10752 10751 10750 ] final  -89.38 input  -60.55 | X-H torsion
[ 11005 11000 10999 10996 ] final    5.35 input  -57.11 | X-H torsion

> <Gold.Protein.ActiveResidues>
 VAL166  LYS551  ARG553  GLY616  TRP617  ASP618  TYR619  PRO620  LYS621  CYS622 
 ASP623  PHE694  ASN695  SER759  ASP760  ASP761  ALA762  ILE779  LEU786  VAL792 
 PHE793  MET794  SER795  GLU796  ALA797  LYS798  CYS799  TRP800  GLU811  SER814 

> <Gold.Protein.RotatedAtoms>
  151.5547  133.3412  159.2959 H   0  0  0  0  0  0  0  0  0  0  0  0  # atno 6907 bound_to 6896
  150.8458  134.7769  159.6980 H   0  0  0  0  0  0  0  0  0  0  0  0  # atno 6908 bound_to 6896
  152.4516  134.5389  159.9885 H   0  0  0  0  0  0  0  0  0  0  0  0  # atno 6909 bound_to 6896
  145.4398  140.9558  143.2081 H   0  0  0  0  0  0  0  0  0  0  0  0  # atno 7974 bound_to 7965
  154.8546  140.2935  155.5577 H   0  0  0  0  0  0  0  0  0  0  0  0  # atno 8008 bound_to 7997
  156.3018  140.2489  156.3443 H   0  0  0  0  0  0  0  0  0  0  0  0  # atno 8009 bound_to 7997
  154.8984  140.0392  157.1868 H   0  0  0  0  0  0  0  0  0  0  0  0  # atno 8010 bound_to 7997
  139.5739  144.1577  152.1423 H   0  0  0  0  0  0  0  0  0  0  0  0  # atno 10167 bound_to 10162
  156.0130  130.5276  150.6650 H   0  0  0  0  0  0  0  0  0  0  0  0  # atno 10718 bound_to 10713
  154.6546  135.5343  153.7943 H   0  0  0  0  0  0  0  0  0  0  0  0  # atno 10763 bound_to 10752
  153.0406  135.6491  154.0964 H   0  0  0  0  0  0  0  0  0  0  0  0  # atno 10764 bound_to 10752
  154.0879  135.2942  155.3257 H   0  0  0  0  0  0  0  0  0  0  0  0  # atno 10765 bound_to 10752
  140.5717  134.0096  155.8011 H   0  0  0  0  0  0  0  0  0  0  0  0  # atno 11005 bound_to 11000
  144.8129  139.5930  143.7021 LP  0  0  0  0  0  0  0  0  0  0  0  0  # atno 17320 bound_to 7965
  146.2562  139.6308  142.9393 LP  0  0  0  0  0  0  0  0  0  0  0  0  # atno 17321 bound_to 7965
  140.1116  144.5452  150.6921 LP  0  0  0  0  0  0  0  0  0  0  0  0  # atno 17342 bound_to 10162
  140.7023  143.2443  151.4829 LP  0  0  0  0  0  0  0  0  0  0  0  0  # atno 17343 bound_to 10162
  157.4384  131.0858  151.0968 LP  0  0  0  0  0  0  0  0  0  0  0  0  # atno 17370 bound_to 10713
  157.1519  130.6188  149.5585 LP  0  0  0  0  0  0  0  0  0  0  0  0  # atno 17371 bound_to 10713
  141.1052  133.9705  157.3010 LP  0  0  0  0  0  0  0  0  0  0  0  0  # atno 17394 bound_to 11000
  139.9358  135.0196  156.8552 LP  0  0  0  0  0  0  0  0  0  0  0  0  # atno 17395 bound_to 11000

$$$$
