AV-unprocessed.smi:1790|AV-procd|sdf|7216|dock3
  -GOLD-   22720 8453D 1   1.00000     0.00000
 Structure written by MMmdl.
 33 34  0  0  0  0  0  0  0  0  1 V2000
  153.3787  138.8351  155.7632 O   0  0  0  0  0  0  0  0  0  0  0  0
  152.6655  138.4401  156.6843 C   0  0  0  0  0  0  0  0  0  0  0  0
  152.7260  136.9684  157.0915 C   0  0  0  0  0  0  0  0  0  0  0  0
  152.1901  136.1730  156.0456 O   0  0  0  0  0  0  0  0  0  0  0  0
  150.7939  136.3501  155.8857 C   0  0  0  0  0  0  0  0  0  0  0  0
  150.2997  135.3982  154.8179 C   0  0  0  0  0  0  0  0  0  0  0  0
  148.9227  134.7810  154.9147 C   0  0  0  0  0  0  0  0  0  0  0  0
  150.1465  133.9245  155.1182 C   0  0  0  0  0  0  0  0  0  0  0  0
  151.8329  139.2101  157.4134 N   0  0  0  0  0  0  0  0  0  0  0  0
  151.5409  140.5799  157.2975 C   0  0  0  0  0  0  0  0  0  0  0  0
  151.7908  141.5156  158.2507 C   0  0  0  0  0  0  0  0  0  0  0  0
  151.4650  142.9189  158.0588 C   0  0  0  0  0  0  0  0  0  0  0  0
  151.8005  143.9635  159.1121 C   0  0  0  0  0  0  0  0  0  0  0  0
  152.5134  143.4375  160.1089 F   0  0  0  0  0  0  0  0  0  0  0  0
  152.5145  144.9459  158.5643 F   0  0  0  0  0  0  0  0  0  0  0  0
  150.6913  144.4949  159.6262 F   0  0  0  0  0  0  0  0  0  0  0  0
  150.9270  143.2535  156.8715 C   0  0  0  0  0  0  0  0  0  0  0  0
  150.6666  142.2986  155.8865 N   0  0  0  0  0  0  0  0  0  0  0  0
  150.9391  140.9807  156.0147 C   0  0  0  0  0  0  0  0  0  0  0  0
  150.6851  140.2028  155.0957 O   0  0  0  0  0  0  0  0  0  0  0  0
  150.2532  142.6279  155.0262 H   0  0  0  0  0  0  0  0  0  0  0  0
  153.7592  136.6813  157.2951 H   0  0  0  0  0  0  0  0  0  0  0  0
  152.1522  136.8305  158.0092 H   0  0  0  0  0  0  0  0  0  0  0  0
  150.2741  136.1375  156.8211 H   0  0  0  0  0  0  0  0  0  0  0  0
  150.5663  137.3784  155.5993 H   0  0  0  0  0  0  0  0  0  0  0  0
  150.6491  135.6414  153.8162 H   0  0  0  0  0  0  0  0  0  0  0  0
  148.3220  135.0149  155.7913 H   0  0  0  0  0  0  0  0  0  0  0  0
  148.3652  134.6524  153.9891 H   0  0  0  0  0  0  0  0  0  0  0  0
  150.4052  133.2218  154.3285 H   0  0  0  0  0  0  0  0  0  0  0  0
  150.3604  133.5876  156.1306 H   0  0  0  0  0  0  0  0  0  0  0  0
  151.3602  138.7456  158.1758 H   0  0  0  0  0  0  0  0  0  0  0  0
  152.2533  141.2490  159.1865 H   0  0  0  0  0  0  0  0  0  0  0  0
  150.6627  144.2606  156.5846 H   0  0  0  0  0  0  0  0  0  0  0  0
  1  2  2  0  0  0  0
  2  3  1  0  0  0  0
  2  9  1  0  0  0  0
  3  4  1  0  0  0  0
  3 22  1  0  0  0  0
  3 23  1  0  0  0  0
  4  5  1  0  0  0  0
  5  6  1  0  0  0  0
  5 24  1  0  0  0  0
  5 25  1  0  0  0  0
  6  8  1  0  0  0  0
  6  7  1  0  0  0  0
  6 26  1  0  0  0  0
  7  8  1  0  0  0  0
  7 27  1  0  0  0  0
  7 28  1  0  0  0  0
  8 29  1  0  0  0  0
  8 30  1  0  0  0  0
  9 10  1  0  0  0  0
  9 31  1  0  0  0  0
 10 19  1  0  0  0  0
 10 11  2  0  0  0  0
 11 12  1  0  0  0  0
 11 32  1  0  0  0  0
 12 13  1  0  0  0  0
 12 17  2  0  0  0  0
 13 14  1  0  0  0  0
 13 15  1  0  0  0  0
 13 16  1  0  0  0  0
 17 18  1  0  0  0  0
 17 33  1  0  0  0  0
 18 21  1  0  0  0  0
 18 19  1  0  0  0  0
 19 20  2  0  0  0  0
M  END
> <s_m_source_file>
AV-unprocessed.smi

> <i_m_source_file_index>
1790

> <i_lp_mmshare_version>
43012

> <i_f3d_flags>
0

> <s_epik_input>
W0NIMl0xW0NIMl1bQ0hdMVtDSDJdT1tDSDJdQyg9TylbTkhdYzJbY0hdYyhDKEYpKEYpRilbY0hdW25IXWMyPU8=

> <s_epik_cmdline>
J2VwaWtfcHl0aG9uJywgJy1waCcsICc3LjAnLCAnLXRuJywgJzgnLCAnLW1hJywgJzIwMCcsICctbWV0YWxfYmluZGluZycsICctaW1hZScsICc8aW5maWxlLm1hZT4nLCAnLW9tYWUnLCAnPG91dGZpbGUubWFlPic=

> <r_lp_tautomer_probability>
0.999

> <r_epik_Ionization_Penalty>
0.00811055

> <r_epik_Ionization_Penalty_Charging>
0.00811046

> <r_epik_Ionization_Penalty_Neutral>
9.25705e-08

> <r_epik_State_Penalty>
0.00609496

> <r_epik_Charging_Adjusted_Penalty>
0.0142054

> <i_epik_Tot_Q>
0

> <i_epik_Tot_abs_Q>
0

> <r_epik_Metal_State_Penalty>
0.317593

> <b_epik_Metal_Only>
0

> <s_lp_Force_Field>
OPLS_2005

> <r_lp_Energy>
26.3792

> <b_lp_Chiralities_Consistent>
1

> <s_lp_Variant>
AV-unprocessed.smi:1790-1

> <Gold.Version>
5.8.1

> <Gold.Id.Protein>
6NUR|6NUR_protein|mol2

> <Gold.PLP.Fitness>
48.1557

> <Gold.PLP.PLP>
-38.0339

> <Gold.PLP.part.hbond>
-4.0000

> <Gold.PLP.part.metal>
0.0000

> <Gold.PLP.part.buried>
-2.2341

> <Gold.PLP.part.nonpolar>
-32.7388

> <Gold.PLP.part.repulsive>
0.2637

> <Gold.PLP.ligand.clash>
0.0000

> <Gold.PLP.ligand.torsion>
1.1159

> <Gold.PLP.Chemscore.Hbond>
2.9920

> <Gold.PLP.Chemscore.CHOScore>
0.8860

> <Gold.PLP.Chemscore.Metal>
0.0000

> <Gold.Chemscore.Hbonds>
donor molecule, donor type, donor heavy atom, donor atom, acceptor molecule, acceptor atom, score
      P1  H  7989  7998       L1    20  1.00
      P1  H  7997  8008       L1     1  0.99
      P1  H 10752 10764       L1     4  1.00
      L1  C    17    33       P1  8028  0.88

> <Gold.PLP.Chemscore.Internal.Correction>
0.7194

> <Gold.Rescore>
     Score         DG    S(hbond)    S(metal)    S(lipo)     H(rot)  DE(clash)    DE(int)     intcor
     16.14     -17.45       2.56        0.00      70.00       1.87       0.31       1.00       ----

> <Gold.Chemscore.Fitness>
16.1402

> <Gold.Chemscore.DG>
-17.4502

> <Gold.Chemscore.ZeroCoef>
-5.4800

> <Gold.Chemscore.Hbond>
2.5625

> <Gold.Chemscore.Metal>
0.0000

> <Gold.Chemscore.Lipo>
69.9959

> <Gold.Chemscore.Internal_Hbond>
0.0000

> <Gold.Chemscore.DEClash>
0.3088

> <Gold.Chemscore.DEInternal>
1.0011

> <Gold.Chemscore.Rot>
1.8664

> <Gold.Chemscore.Internal.Correction>
   9.000000E+99

> <Gold.Chemscore.Hbonds>
donor molecule, donor type, donor heavy atom, donor atom, acceptor molecule, acceptor atom, score
      P1  H  7989  7998       L1    20  0.59
      P1  H  7997  8008       L1     1  0.85
      P1  H 10752 10764       L1     4  0.94

> <Gold.Chemscore.Hbond.Weighted>
-8.5586

> <Gold.Chemscore.Metal.Weighted>
-0.0000

> <Gold.Chemscore.Lipo.Weighted>
-8.1895

> <Gold.Chemscore.Internal_Hbond.Weighted>
0.0000

> <Gold.Chemscore.DEClash.Weighted>
0.3088

> <Gold.Chemscore.DEInternal.Weighted>
1.0011

> <Gold.Chemscore.Rot.Weighted>
4.7780

> <Gold.Chemscore.Internal.Correction.Weighted>
   9.000000E+99

> <Gold.Protein.RotatedTorsions>
[ 6907 6896 6895 6894 ] final   18.78 input  -60.11 | X-H torsion
[ 7974 7965 7964 7962 ] final  -68.02 input  175.53 | X-H torsion
[ 8008 7997 7996 7995 ] final  -32.40 input   59.86 | X-H torsion
[ 10167 10162 10161 10158 ] final  169.17 input  -65.29 | X-H torsion
[ 10718 10713 10712 10709 ] final  101.39 input   66.30 | X-H torsion
[ 10763 10752 10751 10750 ] final  -36.42 input  -60.55 | X-H torsion
[ 11005 11000 10999 10996 ] final   70.13 input  -57.11 | X-H torsion

> <Gold.Protein.ActiveResidues>
 VAL166  LYS551  ARG553  GLY616  TRP617  ASP618  TYR619  PRO620  LYS621  CYS622 
 ASP623  PHE694  ASN695  SER759  ASP760  ASP761  ALA762  ILE779  LEU786  VAL792 
 PHE793  MET794  SER795  GLU796  ALA797  LYS798  CYS799  TRP800  GLU811  SER814 

> <Gold.Protein.RotatedAtoms>
  151.8707  135.0490  160.0478 H   0  0  0  0  0  0  0  0  0  0  0  0  # atno 6907 bound_to 6896
  152.2591  133.5277  159.5379 H   0  0  0  0  0  0  0  0  0  0  0  0  # atno 6908 bound_to 6896
  150.7110  134.0771  159.3927 H   0  0  0  0  0  0  0  0  0  0  0  0  # atno 6909 bound_to 6896
  145.7218  140.9035  143.0626 H   0  0  0  0  0  0  0  0  0  0  0  0  # atno 7974 bound_to 7965
  154.4181  140.1738  156.1721 H   0  0  0  0  0  0  0  0  0  0  0  0  # atno 8008 bound_to 7997
  155.9752  140.3382  155.6588 H   0  0  0  0  0  0  0  0  0  0  0  0  # atno 8009 bound_to 7997
  155.6573  140.0697  157.2557 H   0  0  0  0  0  0  0  0  0  0  0  0  # atno 8010 bound_to 7997
  139.4986  144.3735  151.9700 H   0  0  0  0  0  0  0  0  0  0  0  0  # atno 10167 bound_to 10162
  157.6830  131.0725  150.5245 H   0  0  0  0  0  0  0  0  0  0  0  0  # atno 10718 bound_to 10713
  153.8794  135.6823  153.4768 H   0  0  0  0  0  0  0  0  0  0  0  0  # atno 10763 bound_to 10752
  153.1242  135.4726  154.9243 H   0  0  0  0  0  0  0  0  0  0  0  0  # atno 10764 bound_to 10752
  154.7676  135.3229  154.8207 H   0  0  0  0  0  0  0  0  0  0  0  0  # atno 10765 bound_to 10752
  139.9615  134.7053  156.0637 H   0  0  0  0  0  0  0  0  0  0  0  0  # atno 11005 bound_to 11000
  144.6915  139.9212  143.7468 LP  0  0  0  0  0  0  0  0  0  0  0  0  # atno 17320 bound_to 7965
  146.0619  139.3612  143.0576 LP  0  0  0  0  0  0  0  0  0  0  0  0  # atno 17321 bound_to 7965
  140.3171  144.3471  150.6019 LP  0  0  0  0  0  0  0  0  0  0  0  0  # atno 17342 bound_to 10162
  140.5753  143.2177  151.7527 LP  0  0  0  0  0  0  0  0  0  0  0  0  # atno 17343 bound_to 10162
  156.5557  130.4243  149.6086 LP  0  0  0  0  0  0  0  0  0  0  0  0  # atno 17370 bound_to 10713
  156.2864  130.7100  151.1937 LP  0  0  0  0  0  0  0  0  0  0  0  0  # atno 17371 bound_to 10713
  141.1292  133.6591  156.3418 LP  0  0  0  0  0  0  0  0  0  0  0  0  # atno 17394 bound_to 11000
  140.5491  134.6046  157.5402 LP  0  0  0  0  0  0  0  0  0  0  0  0  # atno 17395 bound_to 11000

$$$$
