AV-unprocessed.smi:2326|AV-procd|sdf|9297|dock1
  -GOLD-   2272012513D 1   1.00000     0.00000
 Structure written by MMmdl.
 37 38  0  0  0  0  0  0  0  0  1 V2000
  146.8873  136.9145  163.3359 C   0  0  0  0  0  0  0  0  0  0  0  0
  147.3806  136.3467  162.0215 C   0  0  0  0  0  0  0  0  0  0  0  0
  147.1600  134.9963  161.6864 C   0  0  0  0  0  0  0  0  0  0  0  0
  147.6504  134.5308  160.4533 C   0  0  0  0  0  0  0  0  0  0  0  0
  148.3379  135.4275  159.6127 C   0  0  0  0  0  0  0  0  0  0  0  0
  148.5158  136.7677  160.0238 C   0  0  0  0  0  0  0  0  0  0  0  0
  149.2309  137.5879  159.1113 N   0  0  0  0  0  0  0  0  0  0  0  0
  150.2244  137.2327  158.2779 C   0  0  0  0  0  0  0  0  0  0  0  0
  150.7481  136.1196  158.2342 O   0  0  0  0  0  0  0  0  0  0  0  0
  150.5793  138.2624  157.4903 N   0  0  0  0  0  0  0  0  0  0  0  0
  151.5907  138.2938  156.4229 C   0  0  0  0  0  0  0  0  0  0  0  0
  152.7679  137.3650  156.7903 C   0  0  0  0  0  0  0  0  0  0  0  0
  150.9924  137.9056  155.0481 C   0  0  0  0  0  0  0  0  0  0  0  0
  149.9613  138.9373  154.5562 C   0  0  0  0  0  0  0  0  0  0  0  0
  150.5640  140.2242  154.4825 O   0  0  0  0  0  0  0  0  0  0  0  0
  151.0239  140.6946  155.7439 C   0  0  0  0  0  0  0  0  0  0  0  0
  152.1022  139.7457  156.3020 C   0  0  0  0  0  0  0  0  0  0  0  0
  148.0383  137.2072  161.2149 N   0  0  0  0  0  0  0  0  0  0  0  0
  146.2128  136.2201  163.8377 H   0  0  0  0  0  0  0  0  0  0  0  0
  146.3504  137.8494  163.1721 H   0  0  0  0  0  0  0  0  0  0  0  0
  147.7290  137.1136  163.9998 H   0  0  0  0  0  0  0  0  0  0  0  0
  146.6308  134.3328  162.3548 H   0  0  0  0  0  0  0  0  0  0  0  0
  147.5038  133.5025  160.1573 H   0  0  0  0  0  0  0  0  0  0  0  0
  148.7239  135.0852  158.6634 H   0  0  0  0  0  0  0  0  0  0  0  0
  148.9279  138.5493  159.0643 H   0  0  0  0  0  0  0  0  0  0  0  0
  150.0778  139.1271  157.6302 H   0  0  0  0  0  0  0  0  0  0  0  0
  153.5693  137.4330  156.0538 H   0  0  0  0  0  0  0  0  0  0  0  0
  152.4649  136.3189  156.8344 H   0  0  0  0  0  0  0  0  0  0  0  0
  153.1924  137.6275  157.7601 H   0  0  0  0  0  0  0  0  0  0  0  0
  151.7947  137.8449  154.3115 H   0  0  0  0  0  0  0  0  0  0  0  0
  150.5434  136.9131  155.0714 H   0  0  0  0  0  0  0  0  0  0  0  0
  149.6038  138.6614  153.5641 H   0  0  0  0  0  0  0  0  0  0  0  0
  149.0880  138.9667  155.2092 H   0  0  0  0  0  0  0  0  0  0  0  0
  151.4389  141.6941  155.6138 H   0  0  0  0  0  0  0  0  0  0  0  0
  150.1851  140.7911  156.4348 H   0  0  0  0  0  0  0  0  0  0  0  0
  152.4532  140.1100  157.2687 H   0  0  0  0  0  0  0  0  0  0  0  0
  152.9656  139.7759  155.6355 H   0  0  0  0  0  0  0  0  0  0  0  0
  1  2  1  0  0  0  0
  1 19  1  0  0  0  0
  1 20  1  0  0  0  0
  1 21  1  0  0  0  0
  2 18  1  0  0  0  0
  2  3  2  0  0  0  0
  3  4  1  0  0  0  0
  3 22  1  0  0  0  0
  4  5  2  0  0  0  0
  4 23  1  0  0  0  0
  5  6  1  0  0  0  0
  5 24  1  0  0  0  0
  6  7  1  0  0  0  0
  6 18  2  0  0  0  0
  7  8  1  0  0  0  0
  7 25  1  0  0  0  0
  8  9  2  0  0  0  0
  8 10  1  0  0  0  0
 10 11  1  0  0  0  0
 10 26  1  0  0  0  0
 11 17  1  0  0  0  0
 11 12  1  0  0  0  0
 11 13  1  0  0  0  0
 12 27  1  0  0  0  0
 12 28  1  0  0  0  0
 12 29  1  0  0  0  0
 13 14  1  0  0  0  0
 13 30  1  0  0  0  0
 13 31  1  0  0  0  0
 14 15  1  0  0  0  0
 14 32  1  0  0  0  0
 14 33  1  0  0  0  0
 15 16  1  0  0  0  0
 16 17  1  0  0  0  0
 16 34  1  0  0  0  0
 16 35  1  0  0  0  0
 17 36  1  0  0  0  0
 17 37  1  0  0  0  0
M  END
> <s_m_source_file>
AV-unprocessed.smi

> <i_m_source_file_index>
2326

> <i_lp_mmshare_version>
43012

> <i_f3d_flags>
0

> <s_epik_input>
W0NIM11jMVtjSF1bY0hdW2NIXWMobjEpW05IXUMoPU8pW05IXUMyKFtDSDNdKVtDSDJdW0NIMl1PW0NIMl1bQ0gyXTI=

> <s_epik_cmdline>
J2VwaWtfcHl0aG9uJywgJy1waCcsICc3LjAnLCAnLXRuJywgJzgnLCAnLW1hJywgJzIwMCcsICctbWV0YWxfYmluZGluZycsICctaW1hZScsICc8aW5maWxlLm1hZT4nLCAnLW9tYWUnLCAnPG91dGZpbGUubWFlPic=

> <r_lp_tautomer_probability>
1

> <r_epik_Ionization_Penalty>
8.85415e-05

> <r_epik_Ionization_Penalty_Charging>
0

> <r_epik_Ionization_Penalty_Neutral>
8.85415e-05

> <r_epik_State_Penalty>
-0

> <r_epik_Charging_Adjusted_Penalty>
0

> <i_epik_Tot_Q>
0

> <i_epik_Tot_abs_Q>
0

> <r_epik_Metal_State_Penalty>
-0

> <b_epik_Metal_Only>
0

> <s_lp_Force_Field>
OPLS_2005

> <r_lp_Energy>
11.1562

> <b_lp_Chiralities_Consistent>
1

> <s_lp_Variant>
AV-unprocessed.smi:2326-1

> <Gold.Version>
5.8.1

> <Gold.Id.Protein>
6NUR|6NUR_protein|mol2

> <Gold.PLP.Fitness>
37.4571

> <Gold.PLP.PLP>
-28.8613

> <Gold.PLP.part.hbond>
-4.0000

> <Gold.PLP.part.metal>
0.0000

> <Gold.PLP.part.buried>
-3.0032

> <Gold.PLP.part.nonpolar>
-22.5679

> <Gold.PLP.part.repulsive>
0.3359

> <Gold.PLP.ligand.clash>
0.0000

> <Gold.PLP.ligand.torsion>
0.7699

> <Gold.PLP.Chemscore.Hbond>
3.3760

> <Gold.PLP.Chemscore.CHOScore>
0.0000

> <Gold.PLP.Chemscore.Metal>
0.0000

> <Gold.Chemscore.Hbonds>
donor molecule, donor type, donor heavy atom, donor atom, acceptor molecule, acceptor atom, score
      P1  H  6896  6907       L1     9  0.69
      P1  H  6931  6943       L1    18  1.00
      P1  H  6934  6947       L1    18  0.67
      P1  H  7989  7998       L1    15  1.00

> <Gold.PLP.Chemscore.Internal.Correction>
0.0076

> <Gold.Rescore>
     Score         DG    S(hbond)    S(metal)    S(lipo)     H(rot)  DE(clash)    DE(int)     intcor
     16.14     -20.19       2.73        0.00      69.54       1.00       0.48       3.57       ----

> <Gold.Chemscore.Fitness>
16.1427

> <Gold.Chemscore.DG>
-20.1856

> <Gold.Chemscore.ZeroCoef>
-5.4800

> <Gold.Chemscore.Hbond>
2.7332

> <Gold.Chemscore.Metal>
0.0000

> <Gold.Chemscore.Lipo>
69.5443

> <Gold.Chemscore.Internal_Hbond>
0.0000

> <Gold.Chemscore.DEClash>
0.4768

> <Gold.Chemscore.DEInternal>
3.5660

> <Gold.Chemscore.Rot>
1.0000

> <Gold.Chemscore.Internal.Correction>
   9.000000E+99

> <Gold.Chemscore.Hbonds>
donor molecule, donor type, donor heavy atom, donor atom, acceptor molecule, acceptor atom, score
      P1  H  6896  6907       L1     9  0.68
      P1  H  6931  6943       L1    18  0.74
      P1  H  6934  6947       L1    18  0.42
      P1  H  7989  7998       L1    15  0.34

> <Gold.Chemscore.Hbond.Weighted>
-9.1289

> <Gold.Chemscore.Metal.Weighted>
-0.0000

> <Gold.Chemscore.Lipo.Weighted>
-8.1367

> <Gold.Chemscore.Internal_Hbond.Weighted>
0.0000

> <Gold.Chemscore.DEClash.Weighted>
0.4768

> <Gold.Chemscore.DEInternal.Weighted>
3.5660

> <Gold.Chemscore.Rot.Weighted>
2.5600

> <Gold.Chemscore.Internal.Correction.Weighted>
   9.000000E+99

> <Gold.Protein.RotatedTorsions>
[ 6907 6896 6895 6894 ] final  -46.56 input  -60.11 | X-H torsion
[ 7974 7965 7964 7962 ] final -164.11 input  175.53 | X-H torsion
[ 8008 7997 7996 7995 ] final   50.04 input   59.86 | X-H torsion
[ 10167 10162 10161 10158 ] final  152.29 input  -65.29 | X-H torsion
[ 10718 10713 10712 10709 ] final -109.05 input   66.30 | X-H torsion
[ 10763 10752 10751 10750 ] final  -40.06 input  -60.55 | X-H torsion
[ 11005 11000 10999 10996 ] final -114.49 input  -57.11 | X-H torsion

> <Gold.Protein.ActiveResidues>
 VAL166  LYS551  ARG553  GLY616  TRP617  ASP618  TYR619  PRO620  LYS621  CYS622 
 ASP623  PHE694  ASN695  SER759  ASP760  ASP761  ALA762  ILE779  LEU786  VAL792 
 PHE793  MET794  SER795  GLU796  ALA797  LYS798  CYS799  TRP800  GLU811  SER814 

> <Gold.Protein.RotatedAtoms>
  150.9100  134.8516  159.7418 H   0  0  0  0  0  0  0  0  0  0  0  0  # atno 6907 bound_to 6896
  152.4939  134.4374  159.9542 H   0  0  0  0  0  0  0  0  0  0  0  0  # atno 6908 bound_to 6896
  151.4417  133.3602  159.2818 H   0  0  0  0  0  0  0  0  0  0  0  0  # atno 6909 bound_to 6896
  144.7306  140.3009  143.6204 H   0  0  0  0  0  0  0  0  0  0  0  0  # atno 7974 bound_to 7965
  155.4122  140.3443  155.4264 H   0  0  0  0  0  0  0  0  0  0  0  0  # atno 8008 bound_to 7997
  156.1442  140.1551  156.8905 H   0  0  0  0  0  0  0  0  0  0  0  0  # atno 8009 bound_to 7997
  154.4996  140.0818  156.7751 H   0  0  0  0  0  0  0  0  0  0  0  0  # atno 8010 bound_to 7997
  139.4834  144.5370  151.7628 H   0  0  0  0  0  0  0  0  0  0  0  0  # atno 10167 bound_to 10162
  156.0517  130.5744  150.8045 H   0  0  0  0  0  0  0  0  0  0  0  0  # atno 10718 bound_to 10713
  153.9397  135.6762  153.4744 H   0  0  0  0  0  0  0  0  0  0  0  0  # atno 10763 bound_to 10752
  153.0937  135.4861  154.8736 H   0  0  0  0  0  0  0  0  0  0  0  0  # atno 10764 bound_to 10752
  154.7384  135.3154  154.8730 H   0  0  0  0  0  0  0  0  0  0  0  0  # atno 10765 bound_to 10752
  141.0548  133.9629  157.2772 H   0  0  0  0  0  0  0  0  0  0  0  0  # atno 11005 bound_to 11000
  145.7761  139.1874  143.2184 LP  0  0  0  0  0  0  0  0  0  0  0  0  # atno 17320 bound_to 7965
  146.0872  140.7697  142.9613 LP  0  0  0  0  0  0  0  0  0  0  0  0  # atno 17321 bound_to 7965
  140.4904  144.1318  150.5949 LP  0  0  0  0  0  0  0  0  0  0  0  0  # atno 17342 bound_to 10162
  140.4177  143.2626  151.9754 LP  0  0  0  0  0  0  0  0  0  0  0  0  # atno 17343 bound_to 10162
  157.5449  131.0942  150.9777 LP  0  0  0  0  0  0  0  0  0  0  0  0  # atno 17370 bound_to 10713
  157.0051  130.5615  149.5315 LP  0  0  0  0  0  0  0  0  0  0  0  0  # atno 17371 bound_to 10713
  139.9381  135.0194  156.8621 LP  0  0  0  0  0  0  0  0  0  0  0  0  # atno 17394 bound_to 11000
  140.5984  134.0195  155.7527 LP  0  0  0  0  0  0  0  0  0  0  0  0  # atno 17395 bound_to 11000

$$$$
