AV-unprocessed.smi:2523|AV-procd|sdf|9921|dock10
  -GOLD-   2272013563D 1   1.00000     0.00000
 Structure written by MMmdl.
 34 36  0  0  0  0  0  0  0  0  1 V2000
  147.7585  140.3008  153.8847 C   0  0  0  0  0  0  0  0  0  0  0  0
  149.0638  139.8377  154.3501 N   0  0  0  0  0  0  0  0  0  0  0  0
  149.5869  138.7496  153.6420 N   0  0  0  0  0  0  0  0  0  0  0  0
  150.7398  138.2399  153.9451 C   0  0  0  0  0  0  0  0  0  0  0  0
  151.4862  138.8297  155.0522 C   0  0  0  0  0  0  0  0  0  0  0  0
  152.7400  138.5744  155.6725 C   0  0  0  0  0  0  0  0  0  0  0  0
  152.9818  139.4164  156.6755 N   0  0  0  0  0  0  0  0  0  0  0  0
  151.9008  140.2361  156.7381 N   0  0  0  0  0  0  0  0  0  0  0  0
  151.8533  141.2857  157.7444 C   0  0  0  0  0  0  0  0  0  0  0  0
  152.4626  140.8502  159.0923 C   0  0  1  0  0  0  0  0  0  0  0  0
  153.7671  140.3367  158.9005 O   0  0  0  0  0  0  0  0  0  0  0  0
  152.4430  141.9909  160.0975 C   0  0  0  0  0  0  0  0  0  0  0  0
  151.7840  143.2023  159.7926 C   0  0  0  0  0  0  0  0  0  0  0  0
  151.7587  144.2525  160.7307 C   0  0  0  0  0  0  0  0  0  0  0  0
  152.3914  144.0976  161.9789 C   0  0  0  0  0  0  0  0  0  0  0  0
  153.0490  142.8913  162.2889 C   0  0  0  0  0  0  0  0  0  0  0  0
  153.8233  142.6996  163.8188 Cl  0  0  0  0  0  0  0  0  0  0  0  0
  153.0739  141.8403  161.3509 C   0  0  0  0  0  0  0  0  0  0  0  0
  150.9981  139.8816  155.7549 C   0  0  0  0  0  0  0  0  0  0  0  0
  149.6802  140.4611  155.3990 C   0  0  0  0  0  0  0  0  0  0  0  0
  149.2035  141.4196  156.0070 O   0  0  0  0  0  0  0  0  0  0  0  0
  147.0231  140.2513  154.6890 H   0  0  0  0  0  0  0  0  0  0  0  0
  147.3821  139.6982  153.0565 H   0  0  0  0  0  0  0  0  0  0  0  0
  147.8193  141.3341  153.5400 H   0  0  0  0  0  0  0  0  0  0  0  0
  151.1460  137.3935  153.3916 H   0  0  0  0  0  0  0  0  0  0  0  0
  153.4731  137.8184  155.4325 H   0  0  0  0  0  0  0  0  0  0  0  0
  152.3559  142.1718  157.3582 H   0  0  0  0  0  0  0  0  0  0  0  0
  150.8103  141.5727  157.8877 H   0  0  0  0  0  0  0  0  0  0  0  0
  151.8646  140.0304  159.4929 H   0  0  0  0  0  0  0  0  0  0  0  0
  153.6997  139.5106  158.4468 H   0  0  0  0  0  0  0  0  0  0  0  0
  151.2926  143.3274  158.8387 H   0  0  0  0  0  0  0  0  0  0  0  0
  151.2526  145.1765  160.4926 H   0  0  0  0  0  0  0  0  0  0  0  0
  152.3703  144.9039  162.6972 H   0  0  0  0  0  0  0  0  0  0  0  0
  153.5769  140.9168  161.5978 H   0  0  0  0  0  0  0  0  0  0  0  0
  1  2  1  0  0  0  0
  1 22  1  0  0  0  0
  1 23  1  0  0  0  0
  1 24  1  0  0  0  0
  2 20  1  0  0  0  0
  2  3  1  0  0  0  0
  3  4  2  0  0  0  0
  4  5  1  0  0  0  0
  4 25  1  0  0  0  0
  5 19  2  0  0  0  0
  5  6  1  0  0  0  0
  6  7  2  0  0  0  0
  6 26  1  0  0  0  0
  7  8  1  0  0  0  0
  8  9  1  0  0  0  0
  8 19  1  0  0  0  0
  9 10  1  0  0  0  0
  9 27  1  0  0  0  0
  9 28  1  0  0  0  0
 10 11  1  0  0  0  0
 10 12  1  0  0  0  0
 10 29  1  0  0  0  0
 11 30  1  0  0  0  0
 12 18  1  0  0  0  0
 12 13  2  0  0  0  0
 13 14  1  0  0  0  0
 13 31  1  0  0  0  0
 14 15  2  0  0  0  0
 14 32  1  0  0  0  0
 15 16  1  0  0  0  0
 15 33  1  0  0  0  0
 16 17  1  0  0  0  0
 16 18  2  0  0  0  0
 18 34  1  0  0  0  0
 19 20  1  0  0  0  0
 20 21  2  0  0  0  0
M  END
> <s_m_source_file>
AV-unprocessed.smi

> <i_m_source_file_index>
2523

> <i_lp_mmshare_version>
43012

> <i_f3d_flags>
0

> <s_epik_input>
W2NIXTFubihbQ0gzXSljKD1PKWMoYzEyKW4obltjSF0yKVtDSDJdW0NASF0oW09IXSljM1tjSF1bY0hdW2NIXWMoQ2wpW2NIXTM=

> <s_epik_cmdline>
J2VwaWtfcHl0aG9uJywgJy1waCcsICc3LjAnLCAnLXRuJywgJzgnLCAnLW1hJywgJzIwMCcsICctbWV0YWxfYmluZGluZycsICctaW1hZScsICc8aW5maWxlLm1hZT4nLCAnLW9tYWUnLCAnPG91dGZpbGUubWFlPic=

> <r_lp_tautomer_probability>
1

> <r_epik_Ionization_Penalty>
8.52698e-06

> <r_epik_Ionization_Penalty_Charging>
1.65421e-10

> <r_epik_Ionization_Penalty_Neutral>
8.52681e-06

> <r_epik_State_Penalty>
-0

> <r_epik_Charging_Adjusted_Penalty>
1.65421e-10

> <i_epik_Tot_Q>
0

> <i_epik_Tot_abs_Q>
0

> <r_epik_Metal_State_Penalty>
-0

> <b_epik_Metal_Only>
0

> <s_lp_Force_Field>
OPLS_2005

> <r_lp_Energy>
26.9154

> <b_lp_Chiralities_Consistent>
1

> <s_lp_Variant>
AV-unprocessed.smi:2523-2

> <Gold.Version>
5.8.1

> <Gold.Id.Protein>
6NUR|6NUR_protein|mol2

> <Gold.PLP.Fitness>
52.6707

> <Gold.PLP.PLP>
-47.5497

> <Gold.PLP.part.hbond>
-2.0000

> <Gold.PLP.part.metal>
0.0000

> <Gold.PLP.part.buried>
-5.7696

> <Gold.PLP.part.nonpolar>
-41.5514

> <Gold.PLP.part.repulsive>
1.9267

> <Gold.PLP.ligand.clash>
0.0000

> <Gold.PLP.ligand.torsion>
0.4795

> <Gold.PLP.Chemscore.Hbond>
1.0000

> <Gold.PLP.Chemscore.CHOScore>
1.0188

> <Gold.PLP.Chemscore.Metal>
0.0000

> <Gold.Chemscore.Hbonds>
donor molecule, donor type, donor heavy atom, donor atom, acceptor molecule, acceptor atom, score
      P1  H  7997  8008       L1     7  1.00
      L1  C     4    25       P1  7948  0.01
      L1  C     4    25       P1  7949  1.00

> <Gold.PLP.Chemscore.Internal.Correction>
0.0236

> <Gold.Rescore>
     Score         DG    S(hbond)    S(metal)    S(lipo)     H(rot)  DE(clash)    DE(int)     intcor
     18.04     -18.62       0.91        0.00     128.47       1.93       0.27       0.31       ----

> <Gold.Chemscore.Fitness>
18.0450

> <Gold.Chemscore.DG>
-18.6208

> <Gold.Chemscore.ZeroCoef>
-5.4800

> <Gold.Chemscore.Hbond>
0.9108

> <Gold.Chemscore.Metal>
0.0000

> <Gold.Chemscore.Lipo>
128.4655

> <Gold.Chemscore.Internal_Hbond>
0.0000

> <Gold.Chemscore.DEClash>
0.2662

> <Gold.Chemscore.DEInternal>
0.3096

> <Gold.Chemscore.Rot>
1.9265

> <Gold.Chemscore.Internal.Correction>
   9.000000E+99

> <Gold.Chemscore.Hbonds>
donor molecule, donor type, donor heavy atom, donor atom, acceptor molecule, acceptor atom, score
      P1  H  7997  8008       L1     7  0.64

> <Gold.Chemscore.Hbond.Weighted>
-3.0421

> <Gold.Chemscore.Metal.Weighted>
-0.0000

> <Gold.Chemscore.Lipo.Weighted>
-15.0305

> <Gold.Chemscore.Internal_Hbond.Weighted>
0.0000

> <Gold.Chemscore.DEClash.Weighted>
0.2662

> <Gold.Chemscore.DEInternal.Weighted>
0.3096

> <Gold.Chemscore.Rot.Weighted>
4.9317

> <Gold.Chemscore.Internal.Correction.Weighted>
   9.000000E+99

> <Gold.Protein.RotatedTorsions>
[ 6907 6896 6895 6894 ] final   96.08 input  -60.11 | X-H torsion
[ 7974 7965 7964 7962 ] final  178.96 input  175.53 | X-H torsion
[ 8008 7997 7996 7995 ] final  -49.32 input   59.86 | X-H torsion
[ 10167 10162 10161 10158 ] final -129.38 input  -65.29 | X-H torsion
[ 10718 10713 10712 10709 ] final -135.48 input   66.30 | X-H torsion
[ 10763 10752 10751 10750 ] final   69.26 input  -60.55 | X-H torsion
[ 11005 11000 10999 10996 ] final    3.02 input  -57.11 | X-H torsion

> <Gold.Protein.ActiveResidues>
 VAL166  LYS551  ARG553  GLY616  TRP617  ASP618  TYR619  PRO620  LYS621  CYS622 
 ASP623  PHE694  ASN695  SER759  ASP760  ASP761  ALA762  ILE779  LEU786  VAL792 
 PHE793  MET794  SER795  GLU796  ALA797  LYS798  CYS799  TRP800  GLU811  SER814 

> <Gold.Protein.RotatedAtoms>
  152.5438  134.0941  159.8289 H   0  0  0  0  0  0  0  0  0  0  0  0  # atno 6907 bound_to 6896
  151.1026  133.5224  159.2616 H   0  0  0  0  0  0  0  0  0  0  0  0  # atno 6908 bound_to 6896
  151.1973  135.0437  159.8912 H   0  0  0  0  0  0  0  0  0  0  0  0  # atno 6909 bound_to 6896
  144.7150  140.0475  143.6436 H   0  0  0  0  0  0  0  0  0  0  0  0  # atno 7974 bound_to 7965
  154.4042  140.1299  156.4484 H   0  0  0  0  0  0  0  0  0  0  0  0  # atno 8008 bound_to 7997
  155.7390  140.3490  155.5075 H   0  0  0  0  0  0  0  0  0  0  0  0  # atno 8009 bound_to 7997
  155.9056  140.1027  157.1307 H   0  0  0  0  0  0  0  0  0  0  0  0  # atno 8010 bound_to 7997
  139.9404  143.6169  152.2505 H   0  0  0  0  0  0  0  0  0  0  0  0  # atno 10167 bound_to 10162
  156.2667  130.7241  151.1194 H   0  0  0  0  0  0  0  0  0  0  0  0  # atno 10718 bound_to 10713
  153.0277  135.5217  154.7260 H   0  0  0  0  0  0  0  0  0  0  0  0  # atno 10763 bound_to 10752
  154.6302  135.2899  155.0228 H   0  0  0  0  0  0  0  0  0  0  0  0  # atno 10764 bound_to 10752
  154.1183  135.6611  153.4950 H   0  0  0  0  0  0  0  0  0  0  0  0  # atno 10765 bound_to 10752
  140.5978  133.9864  155.8118 H   0  0  0  0  0  0  0  0  0  0  0  0  # atno 11005 bound_to 11000
  145.9972  139.3061  143.0950 LP  0  0  0  0  0  0  0  0  0  0  0  0  # atno 17320 bound_to 7965
  145.8835  140.9348  143.0589 LP  0  0  0  0  0  0  0  0  0  0  0  0  # atno 17321 bound_to 7965
  139.6709  144.7661  151.1785 LP  0  0  0  0  0  0  0  0  0  0  0  0  # atno 17342 bound_to 10162
  140.7612  143.5867  150.8839 LP  0  0  0  0  0  0  0  0  0  0  0  0  # atno 17343 bound_to 10162
  157.7269  131.0642  150.5887 LP  0  0  0  0  0  0  0  0  0  0  0  0  # atno 17370 bound_to 10713
  156.5979  130.4346  149.5909 LP  0  0  0  0  0  0  0  0  0  0  0  0  # atno 17371 bound_to 10713
  141.0892  133.9943  157.3264 LP  0  0  0  0  0  0  0  0  0  0  0  0  # atno 17394 bound_to 11000
  139.9245  135.0201  156.8186 LP  0  0  0  0  0  0  0  0  0  0  0  0  # atno 17395 bound_to 11000

$$$$
