AV-unprocessed.smi:1561|AV-procd|sdf|6286|dock7
  -GOLD-   22720 6483D 1   1.00000     0.00000
 Structure written by MMmdl.
 33 34  0  0  0  0  0  0  0  0  1 V2000
  153.3313  141.8161  161.1098 C   0  0  0  0  0  0  0  0  0  0  0  0
  153.0561  142.0922  159.6175 C   0  0  1  0  0  0  0  0  0  0  0  0
  152.5167  140.8584  158.8770 C   0  0  0  0  0  0  0  0  0  0  0  0
  153.2879  140.0395  158.3756 O   0  0  0  0  0  0  0  0  0  0  0  0
  151.1805  140.7419  158.8155 N   0  0  0  0  0  0  0  0  0  0  0  0
  150.4506  139.6519  158.1757 C   0  0  0  0  0  0  0  0  0  0  0  0
  150.7323  139.5791  156.6631 C   0  0  1  0  0  0  0  0  0  0  0  0
  150.1159  138.3929  155.9458 C   0  0  0  0  0  0  0  0  0  0  0  0
  150.1314  138.8523  154.4902 C   0  0  0  0  0  0  0  0  0  0  0  0
  150.0483  140.2746  154.5241 O   0  0  0  0  0  0  0  0  0  0  0  0
  150.1285  140.7357  155.8688 C   0  0  0  0  0  0  0  0  0  0  0  0
  152.1660  143.2305  159.4189 N   0  0  0  0  0  0  0  0  0  0  0  0
  151.7612  144.1630  160.3528 C   0  0  0  0  0  0  0  0  0  0  0  0
  150.9631  145.0673  159.7126 C   0  0  0  0  0  0  0  0  0  0  0  0
  150.9452  144.6078  158.3666 C   0  0  0  0  0  0  0  0  0  0  0  0
  151.6713  143.5163  158.1918 N   0  0  0  0  0  0  0  0  0  0  0  0
  154.0459  141.0013  161.2320 H   0  0  0  0  0  0  0  0  0  0  0  0
  152.4250  141.5434  161.6523 H   0  0  0  0  0  0  0  0  0  0  0  0
  153.7543  142.6960  161.5953 H   0  0  0  0  0  0  0  0  0  0  0  0
  154.0129  142.3528  159.1618 H   0  0  0  0  0  0  0  0  0  0  0  0
  150.6250  141.4614  159.2548 H   0  0  0  0  0  0  0  0  0  0  0  0
  150.6743  138.6985  158.6576 H   0  0  0  0  0  0  0  0  0  0  0  0
  149.3874  139.8306  158.3374 H   0  0  0  0  0  0  0  0  0  0  0  0
  151.8105  139.5698  156.4935 H   0  0  0  0  0  0  0  0  0  0  0  0
  150.6630  137.4625  156.1009 H   0  0  0  0  0  0  0  0  0  0  0  0
  149.0873  138.2422  156.2773 H   0  0  0  0  0  0  0  0  0  0  0  0
  151.0706  138.5728  154.0117 H   0  0  0  0  0  0  0  0  0  0  0  0
  149.3147  138.4195  153.9122 H   0  0  0  0  0  0  0  0  0  0  0  0
  149.1190  140.9584  156.2173 H   0  0  0  0  0  0  0  0  0  0  0  0
  150.7200  141.6487  155.9420 H   0  0  0  0  0  0  0  0  0  0  0  0
  152.0717  144.1062  161.3858 H   0  0  0  0  0  0  0  0  0  0  0  0
  150.4707  145.9284  160.1395 H   0  0  0  0  0  0  0  0  0  0  0  0
  150.4338  145.0346  157.5165 H   0  0  0  0  0  0  0  0  0  0  0  0
  1  2  1  0  0  0  0
  1 17  1  0  0  0  0
  1 18  1  0  0  0  0
  1 19  1  0  0  0  0
  2  3  1  0  0  0  0
  2 12  1  0  0  0  0
  2 20  1  0  0  0  0
  3  4  2  0  0  0  0
  3  5  1  0  0  0  0
  5  6  1  0  0  0  0
  5 21  1  0  0  0  0
  6  7  1  0  0  0  0
  6 22  1  0  0  0  0
  6 23  1  0  0  0  0
  7 11  1  0  0  0  0
  7  8  1  0  0  0  0
  7 24  1  0  0  0  0
  8  9  1  0  0  0  0
  8 25  1  0  0  0  0
  8 26  1  0  0  0  0
  9 10  1  0  0  0  0
  9 27  1  0  0  0  0
  9 28  1  0  0  0  0
 10 11  1  0  0  0  0
 11 29  1  0  0  0  0
 11 30  1  0  0  0  0
 12 16  1  0  0  0  0
 12 13  1  0  0  0  0
 13 14  2  0  0  0  0
 13 31  1  0  0  0  0
 14 15  1  0  0  0  0
 14 32  1  0  0  0  0
 15 16  2  0  0  0  0
 15 33  1  0  0  0  0
M  END
> <s_m_source_file>
AV-unprocessed.smi

> <i_m_source_file_index>
1561

> <i_lp_mmshare_version>
43012

> <i_f3d_flags>
0

> <s_epik_input>
bjFbY0hdW2NIXVtjSF1uMVtDQEhdKFtDSDNdKUMoPU8pW05IXVtDSDJdW0NAQEhdMltDSDJdW0NIMl1PW0NIMl0y

> <s_epik_cmdline>
J2VwaWtfcHl0aG9uJywgJy1waCcsICc3LjAnLCAnLXRuJywgJzgnLCAnLW1hJywgJzIwMCcsICctbWV0YWxfYmluZGluZycsICctaW1hZScsICc8aW5maWxlLm1hZT4nLCAnLW9tYWUnLCAnPG91dGZpbGUubWFlPic=

> <r_lp_tautomer_probability>
1

> <r_epik_Ionization_Penalty>
3.82077e-05

> <r_epik_Ionization_Penalty_Charging>
0

> <r_epik_Ionization_Penalty_Neutral>
3.82077e-05

> <r_epik_State_Penalty>
-0

> <r_epik_Charging_Adjusted_Penalty>
0

> <i_epik_Tot_Q>
0

> <i_epik_Tot_abs_Q>
0

> <r_epik_Metal_State_Penalty>
-0

> <b_epik_Metal_Only>
0

> <s_lp_Force_Field>
OPLS_2005

> <r_lp_Energy>
22.4357

> <b_lp_Chiralities_Consistent>
1

> <s_lp_Variant>
AV-unprocessed.smi:1561-4

> <Gold.Version>
5.8.1

> <Gold.Id.Protein>
6NUR|6NUR_protein|mol2

> <Gold.PLP.Fitness>
43.8066

> <Gold.PLP.PLP>
-36.8956

> <Gold.PLP.part.hbond>
-1.9390

> <Gold.PLP.part.metal>
0.0000

> <Gold.PLP.part.buried>
-5.1658

> <Gold.PLP.part.nonpolar>
-30.6746

> <Gold.PLP.part.repulsive>
0.3146

> <Gold.PLP.ligand.clash>
0.0000

> <Gold.PLP.ligand.torsion>
1.0839

> <Gold.PLP.Chemscore.Hbond>
1.9913

> <Gold.PLP.Chemscore.CHOScore>
1.0000

> <Gold.PLP.Chemscore.Metal>
0.0000

> <Gold.Chemscore.Hbonds>
donor molecule, donor type, donor heavy atom, donor atom, acceptor molecule, acceptor atom, score
      P1  H  7989  7998       L1    10  0.99
      P1  H  7997  8010       L1     4  0.91
      L1  C    15    33       P1  8028  0.80
      L1  C    15    33       P1  8029  0.09

> <Gold.PLP.Chemscore.Internal.Correction>
0.1049

> <Gold.Rescore>
     Score         DG    S(hbond)    S(metal)    S(lipo)     H(rot)  DE(clash)    DE(int)     intcor
     16.13     -17.02       1.82        0.00      82.03       1.61       0.00       0.89       ----

> <Gold.Chemscore.Fitness>
16.1326

> <Gold.Chemscore.DG>
-17.0207

> <Gold.Chemscore.ZeroCoef>
-5.4800

> <Gold.Chemscore.Hbond>
1.8154

> <Gold.Chemscore.Metal>
0.0000

> <Gold.Chemscore.Lipo>
82.0288

> <Gold.Chemscore.Internal_Hbond>
0.0000

> <Gold.Chemscore.DEClash>
0.0000

> <Gold.Chemscore.DEInternal>
0.8881

> <Gold.Chemscore.Rot>
1.6094

> <Gold.Chemscore.Internal.Correction>
   9.000000E+99

> <Gold.Chemscore.Hbonds>
donor molecule, donor type, donor heavy atom, donor atom, acceptor molecule, acceptor atom, score
      P1  H  7989  7998       L1    10  0.32
      P1  H  7997  8010       L1     4  0.89

> <Gold.Chemscore.Hbond.Weighted>
-6.0634

> <Gold.Chemscore.Metal.Weighted>
-0.0000

> <Gold.Chemscore.Lipo.Weighted>
-9.5974

> <Gold.Chemscore.Internal_Hbond.Weighted>
0.0000

> <Gold.Chemscore.DEClash.Weighted>
0.0000

> <Gold.Chemscore.DEInternal.Weighted>
0.8881

> <Gold.Chemscore.Rot.Weighted>
4.1201

> <Gold.Chemscore.Internal.Correction.Weighted>
   9.000000E+99

> <Gold.Protein.RotatedTorsions>
[ 6907 6896 6895 6894 ] final  -54.87 input  -60.11 | X-H torsion
[ 7974 7965 7964 7962 ] final   99.37 input  175.53 | X-H torsion
[ 8008 7997 7996 7995 ] final   18.09 input   59.86 | X-H torsion
[ 10167 10162 10161 10158 ] final   99.18 input  -65.29 | X-H torsion
[ 10718 10713 10712 10709 ] final -134.28 input   66.30 | X-H torsion
[ 10763 10752 10751 10750 ] final -121.14 input  -60.55 | X-H torsion
[ 11005 11000 10999 10996 ] final -113.23 input  -57.11 | X-H torsion

> <Gold.Protein.ActiveResidues>
 VAL166  LYS551  ARG553  GLY616  TRP617  ASP618  TYR619  PRO620  LYS621  CYS622 
 ASP623  PHE694  ASN695  SER759  ASP760  ASP761  ALA762  ILE779  LEU786  VAL792 
 PHE793  MET794  SER795  GLU796  ALA797  LYS798  CYS799  TRP800  GLU811  SER814 

> <Gold.Protein.RotatedAtoms>
  150.8300  134.7549  159.6845 H   0  0  0  0  0  0  0  0  0  0  0  0  # atno 6907 bound_to 6896
  152.4406  134.5596  159.9900 H   0  0  0  0  0  0  0  0  0  0  0  0  # atno 6908 bound_to 6896
  151.5759  133.3346  159.3034 H   0  0  0  0  0  0  0  0  0  0  0  0  # atno 6909 bound_to 6896
  145.3998  139.2349  143.3306 H   0  0  0  0  0  0  0  0  0  0  0  0  # atno 7974 bound_to 7965
  154.9009  140.3000  155.5318 H   0  0  0  0  0  0  0  0  0  0  0  0  # atno 8008 bound_to 7997
  156.3018  140.2407  156.3972 H   0  0  0  0  0  0  0  0  0  0  0  0  # atno 8009 bound_to 7997
  154.8522  140.0409  157.1600 H   0  0  0  0  0  0  0  0  0  0  0  0  # atno 8010 bound_to 7997
  139.7641  144.6944  151.0250 H   0  0  0  0  0  0  0  0  0  0  0  0  # atno 10167 bound_to 10162
  156.2538  130.7169  151.1078 H   0  0  0  0  0  0  0  0  0  0  0  0  # atno 10718 bound_to 10713
  154.8661  135.4178  154.2572 H   0  0  0  0  0  0  0  0  0  0  0  0  # atno 10763 bound_to 10752
  153.3507  135.6998  153.6797 H   0  0  0  0  0  0  0  0  0  0  0  0  # atno 10764 bound_to 10752
  153.5737  135.3586  155.2820 H   0  0  0  0  0  0  0  0  0  0  0  0  # atno 10765 bound_to 10752
  141.0627  133.9509  157.2637 H   0  0  0  0  0  0  0  0  0  0  0  0  # atno 11005 bound_to 11000
  146.2757  140.4694  142.8796 LP  0  0  0  0  0  0  0  0  0  0  0  0  # atno 17320 bound_to 7965
  144.8382  140.6815  143.6247 LP  0  0  0  0  0  0  0  0  0  0  0  0  # atno 17321 bound_to 7965
  140.7809  143.4663  151.0207 LP  0  0  0  0  0  0  0  0  0  0  0  0  # atno 17342 bound_to 10162
  139.8349  143.7642  152.3180 LP  0  0  0  0  0  0  0  0  0  0  0  0  # atno 17343 bound_to 10162
  157.7224  131.0672  150.6077 LP  0  0  0  0  0  0  0  0  0  0  0  0  # atno 17370 bound_to 10713
  156.6159  130.4392  149.5841 LP  0  0  0  0  0  0  0  0  0  0  0  0  # atno 17371 bound_to 10713
  139.9447  135.0186  156.8817 LP  0  0  0  0  0  0  0  0  0  0  0  0  # atno 17394 bound_to 11000
  140.5836  134.0329  155.7473 LP  0  0  0  0  0  0  0  0  0  0  0  0  # atno 17395 bound_to 11000

$$$$
