AV-unprocessed.smi:437|AV-procd|sdf|2561|dock9
  -GOLD-   2262022533D 1   1.00000     0.00000
 Structure written by MMmdl.
 48 49  0  0  0  0  0  0  0  0  1 V2000
  147.1815  137.9531  155.0452 C   0  0  0  0  0  0  0  0  0  0  0  0
  148.6293  137.6143  155.2784 C   0  0  0  0  0  0  0  0  0  0  0  0
  148.8769  136.4764  155.8392 N   0  0  0  0  0  0  0  0  0  0  0  0
  150.1708  136.0707  156.1033 N   0  0  0  0  0  0  0  0  0  0  0  0
  150.2643  134.7570  156.7579 C   0  0  0  0  0  0  0  0  0  0  0  0
  148.9031  134.2113  157.2173 C   0  0  0  0  0  0  0  0  0  0  0  0
  148.4459  133.1814  156.7146 O   0  0  0  0  0  0  0  0  0  0  0  0
  148.2985  134.9322  158.1833 N   0  0  0  0  0  0  0  0  0  0  0  0
  147.1090  134.6889  158.7664 C   0  0  0  0  0  0  0  0  0  0  0  0
  146.2922  133.8376  158.4081 O   0  0  0  0  0  0  0  0  0  0  0  0
  146.9126  135.5055  159.8117 N   0  0  0  0  0  0  0  0  0  0  0  0
  145.9636  135.2812  160.9031 C   0  0  2  0  0  0  0  0  0  0  0  0
  145.6235  136.6094  161.6123 C   0  0  0  0  0  0  0  0  0  0  0  0
  146.8122  137.1572  162.4206 C   0  0  0  0  0  0  0  0  0  0  0  0
  147.3335  136.1135  163.4197 C   0  0  0  0  0  0  0  0  0  0  0  0
  147.6956  134.7960  162.7157 C   0  0  0  0  0  0  0  0  0  0  0  0
  146.5053  134.2359  161.9096 C   0  0  2  0  0  0  0  0  0  0  0  0
  146.8546  132.8930  161.2454 C   0  0  0  0  0  0  0  0  0  0  0  0
  151.2882  136.7936  155.8028 C   0  0  0  0  0  0  0  0  0  0  0  0
  152.4253  136.3890  156.0508 O   0  0  0  0  0  0  0  0  0  0  0  0
  151.0002  138.0814  155.1676 C   0  0  0  0  0  0  0  0  0  0  0  0
  152.1421  138.8738  154.8430 C   0  0  0  0  0  0  0  0  0  0  0  0
  153.0746  139.5147  154.5988 N   0  0  0  0  0  0  0  0  0  0  0  0
  149.7339  138.4926  154.9069 C   0  0  0  0  0  0  0  0  0  0  0  0
  149.3808  139.8194  154.2490 C   0  0  0  0  0  0  0  0  0  0  0  0
  146.9761  138.0592  153.9798 H   0  0  0  0  0  0  0  0  0  0  0  0
  146.9187  138.8905  155.5358 H   0  0  0  0  0  0  0  0  0  0  0  0
  146.5151  137.1815  155.4339 H   0  0  0  0  0  0  0  0  0  0  0  0
  150.7076  134.0286  156.0764 H   0  0  0  0  0  0  0  0  0  0  0  0
  150.9437  134.8091  157.6109 H   0  0  0  0  0  0  0  0  0  0  0  0
  148.7966  135.7478  158.5076 H   0  0  0  0  0  0  0  0  0  0  0  0
  147.4617  136.3509  159.8628 H   0  0  0  0  0  0  0  0  0  0  0  0
  145.0411  134.8799  160.4787 H   0  0  0  0  0  0  0  0  0  0  0  0
  145.2900  137.3539  160.8883 H   0  0  0  0  0  0  0  0  0  0  0  0
  144.7811  136.4478  162.2861 H   0  0  0  0  0  0  0  0  0  0  0  0
  147.6157  137.4507  161.7441 H   0  0  0  0  0  0  0  0  0  0  0  0
  146.5131  138.0611  162.9521 H   0  0  0  0  0  0  0  0  0  0  0  0
  148.2050  136.5050  163.9452 H   0  0  0  0  0  0  0  0  0  0  0  0
  146.5740  135.9244  164.1797 H   0  0  0  0  0  0  0  0  0  0  0  0
  148.5492  134.9584  162.0564 H   0  0  0  0  0  0  0  0  0  0  0  0
  148.0178  134.0654  163.4584 H   0  0  0  0  0  0  0  0  0  0  0  0
  145.7026  134.0328  162.6202 H   0  0  0  0  0  0  0  0  0  0  0  0
  147.6956  132.9882  160.5581 H   0  0  0  0  0  0  0  0  0  0  0  0
  146.0066  132.5014  160.6832 H   0  0  0  0  0  0  0  0  0  0  0  0
  147.1253  132.1472  161.9932 H   0  0  0  0  0  0  0  0  0  0  0  0
  150.2658  140.3879  153.9644 H   0  0  0  0  0  0  0  0  0  0  0  0
  148.7963  140.4390  154.9301 H   0  0  0  0  0  0  0  0  0  0  0  0
  148.7941  139.6550  153.3444 H   0  0  0  0  0  0  0  0  0  0  0  0
  1  2  1  0  0  0  0
  1 26  1  0  0  0  0
  1 27  1  0  0  0  0
  1 28  1  0  0  0  0
  2 24  1  0  0  0  0
  2  3  2  0  0  0  0
  3  4  1  0  0  0  0
  4  5  1  0  0  0  0
  4 19  1  0  0  0  0
  5  6  1  0  0  0  0
  5 29  1  0  0  0  0
  5 30  1  0  0  0  0
  6  7  2  0  0  0  0
  6  8  1  0  0  0  0
  8  9  1  0  0  0  0
  8 31  1  0  0  0  0
  9 10  2  0  0  0  0
  9 11  1  0  0  0  0
 11 12  1  0  0  0  0
 11 32  1  0  0  0  0
 12 17  1  0  0  0  0
 12 13  1  0  0  0  0
 12 33  1  0  0  0  0
 13 14  1  0  0  0  0
 13 34  1  0  0  0  0
 13 35  1  0  0  0  0
 14 15  1  0  0  0  0
 14 36  1  0  0  0  0
 14 37  1  0  0  0  0
 15 16  1  0  0  0  0
 15 38  1  0  0  0  0
 15 39  1  0  0  0  0
 16 17  1  0  0  0  0
 16 40  1  0  0  0  0
 16 41  1  0  0  0  0
 17 18  1  0  0  0  0
 17 42  1  0  0  0  0
 18 43  1  0  0  0  0
 18 44  1  0  0  0  0
 18 45  1  0  0  0  0
 19 20  2  0  0  0  0
 19 21  1  0  0  0  0
 21 22  1  0  0  0  0
 21 24  2  0  0  0  0
 22 23  3  0  0  0  0
 24 25  1  0  0  0  0
 25 46  1  0  0  0  0
 25 47  1  0  0  0  0
 25 48  1  0  0  0  0
M  END
> <s_m_source_file>
AV-unprocessed.smi

> <i_m_source_file_index>
437

> <i_lp_mmshare_version>
43012

> <i_f3d_flags>
0

> <s_epik_input>
TiNDYyhjMVtDSDNdKWMoPU8pbihuYzFbQ0gzXSlbQ0gyXUMoPU8pW05IXUMoPU8pW05IXVtDQEBIXTJbQ0gyXVtDSDJdW0NIMl1bQ0gyXVtDQEhdMltDSDNd

> <s_epik_cmdline>
J2VwaWtfcHl0aG9uJywgJy1waCcsICc3LjAnLCAnLXRuJywgJzgnLCAnLW1hJywgJzIwMCcsICctbWV0YWxfYmluZGluZycsICctaW1hZScsICc8aW5maWxlLm1hZT4nLCAnLW9tYWUnLCAnPG91dGZpbGUubWFlPic=

> <r_lp_tautomer_probability>
1

> <r_epik_Ionization_Penalty>
3.27035e-05

> <r_epik_Ionization_Penalty_Charging>
1.6965e-11

> <r_epik_Ionization_Penalty_Neutral>
3.27035e-05

> <r_epik_State_Penalty>
-0

> <r_epik_Charging_Adjusted_Penalty>
1.6965e-11

> <i_epik_Tot_Q>
0

> <i_epik_Tot_abs_Q>
0

> <r_epik_Metal_State_Penalty>
-0

> <b_epik_Metal_Only>
0

> <s_lp_Force_Field>
OPLS_2005

> <r_lp_Energy>
26.4777

> <b_lp_Chiralities_Consistent>
1

> <s_lp_Variant>
AV-unprocessed.smi:437-3

> <Gold.Version>
5.8.1

> <Gold.Id.Protein>
6NUR|6NUR_protein|mol2

> <Gold.PLP.Fitness>
38.6279

> <Gold.PLP.PLP>
-33.4296

> <Gold.PLP.part.hbond>
-3.0000

> <Gold.PLP.part.metal>
0.0000

> <Gold.PLP.part.buried>
-4.0443

> <Gold.PLP.part.nonpolar>
-25.9555

> <Gold.PLP.part.repulsive>
0.1794

> <Gold.PLP.ligand.clash>
0.0000

> <Gold.PLP.ligand.torsion>
0.4718

> <Gold.PLP.Chemscore.Hbond>
2.0386

> <Gold.PLP.Chemscore.CHOScore>
0.0000

> <Gold.PLP.Chemscore.Metal>
0.0000

> <Gold.Chemscore.Hbonds>
donor molecule, donor type, donor heavy atom, donor atom, acceptor molecule, acceptor atom, score
      P1  H  7989  7998       L1    23  0.06
      P1  H  7997  8009       L1    23  1.00
      P1  H 10752 10765       L1    20  1.00

> <Gold.PLP.Chemscore.Internal.Correction>
0.0260

> <Gold.Rescore>
     Score         DG    S(hbond)    S(metal)    S(lipo)     H(rot)  DE(clash)    DE(int)     intcor
     15.16     -17.33       1.97        0.00      79.31       1.57       0.28       1.89       ----

> <Gold.Chemscore.Fitness>
15.1576

> <Gold.Chemscore.DG>
-17.3283

> <Gold.Chemscore.ZeroCoef>
-5.4800

> <Gold.Chemscore.Hbond>
1.9690

> <Gold.Chemscore.Metal>
0.0000

> <Gold.Chemscore.Lipo>
79.3132

> <Gold.Chemscore.Internal_Hbond>
0.0000

> <Gold.Chemscore.DEClash>
0.2821

> <Gold.Chemscore.DEInternal>
1.8887

> <Gold.Chemscore.Rot>
1.5656

> <Gold.Chemscore.Internal.Correction>
   9.000000E+99

> <Gold.Chemscore.Hbonds>
donor molecule, donor type, donor heavy atom, donor atom, acceptor molecule, acceptor atom, score
      P1  H  7997  8009       L1    23  0.97
      P1  H 10752 10765       L1    20  0.92

> <Gold.Chemscore.Hbond.Weighted>
-6.5766

> <Gold.Chemscore.Metal.Weighted>
-0.0000

> <Gold.Chemscore.Lipo.Weighted>
-9.2796

> <Gold.Chemscore.Internal_Hbond.Weighted>
0.0000

> <Gold.Chemscore.DEClash.Weighted>
0.2821

> <Gold.Chemscore.DEInternal.Weighted>
1.8887

> <Gold.Chemscore.Rot.Weighted>
4.0079

> <Gold.Chemscore.Internal.Correction.Weighted>
   9.000000E+99

> <Gold.Protein.RotatedTorsions>
[ 6907 6896 6895 6894 ] final  -63.72 input  -60.11 | X-H torsion
[ 7974 7965 7964 7962 ] final  130.24 input  175.53 | X-H torsion
[ 8008 7997 7996 7995 ] final -130.26 input   59.86 | X-H torsion
[ 10167 10162 10161 10158 ] final  -53.45 input  -65.29 | X-H torsion
[ 10718 10713 10712 10709 ] final  130.96 input   66.30 | X-H torsion
[ 10763 10752 10751 10750 ] final -141.53 input  -60.55 | X-H torsion
[ 11005 11000 10999 10996 ] final -116.75 input  -57.11 | X-H torsion

> <Gold.Protein.ActiveResidues>
 VAL166  LYS551  ARG553  GLY616  TRP617  ASP618  TYR619  PRO620  LYS621  CYS622 
 ASP623  PHE694  ASN695  SER759  ASP760  ASP761  ALA762  ILE779  LEU786  VAL792 
 PHE793  MET794  SER795  GLU796  ALA797  LYS798  CYS799  TRP800  GLU811  SER814 

> <Gold.Protein.RotatedAtoms>
  150.7631  134.6397  159.6230 H   0  0  0  0  0  0  0  0  0  0  0  0  # atno 6907 bound_to 6896
  152.3649  134.6815  160.0204 H   0  0  0  0  0  0  0  0  0  0  0  0  # atno 6908 bound_to 6896
  151.7194  133.3278  159.3347 H   0  0  0  0  0  0  0  0  0  0  0  0  # atno 6909 bound_to 6896
  145.0200  139.4141  143.5202 H   0  0  0  0  0  0  0  0  0  0  0  0  # atno 7974 bound_to 7965
  155.2928  140.0449  157.3024 H   0  0  0  0  0  0  0  0  0  0  0  0  # atno 8008 bound_to 7997
  154.5531  140.2323  155.8420 H   0  0  0  0  0  0  0  0  0  0  0  0  # atno 8009 bound_to 7997
  156.1984  140.3032  155.9482 H   0  0  0  0  0  0  0  0  0  0  0  0  # atno 8010 bound_to 7997
  140.6484  143.2550  151.4793 H   0  0  0  0  0  0  0  0  0  0  0  0  # atno 10167 bound_to 10162
  157.5012  131.1094  150.9424 H   0  0  0  0  0  0  0  0  0  0  0  0  # atno 10718 bound_to 10713
  154.8542  135.3522  154.5882 H   0  0  0  0  0  0  0  0  0  0  0  0  # atno 10763 bound_to 10752
  153.6492  135.6995  153.5219 H   0  0  0  0  0  0  0  0  0  0  0  0  # atno 10764 bound_to 10752
  153.2908  135.4235  155.1123 H   0  0  0  0  0  0  0  0  0  0  0  0  # atno 10765 bound_to 10752
  141.0401  133.9849  157.3008 H   0  0  0  0  0  0  0  0  0  0  0  0  # atno 11005 bound_to 11000
  146.3484  139.9692  142.8708 LP  0  0  0  0  0  0  0  0  0  0  0  0  # atno 17320 bound_to 7965
  145.1908  140.9811  143.4212 LP  0  0  0  0  0  0  0  0  0  0  0  0  # atno 17321 bound_to 7965
  139.5697  144.1958  152.1818 LP  0  0  0  0  0  0  0  0  0  0  0  0  # atno 17342 bound_to 10162
  140.1251  144.5339  150.6838 LP  0  0  0  0  0  0  0  0  0  0  0  0  # atno 17343 bound_to 10162
  157.0094  130.5631  149.5319 LP  0  0  0  0  0  0  0  0  0  0  0  0  # atno 17370 bound_to 10713
  156.0230  130.5325  150.8330 LP  0  0  0  0  0  0  0  0  0  0  0  0  # atno 17371 bound_to 10713
  139.9269  135.0201  156.8266 LP  0  0  0  0  0  0  0  0  0  0  0  0  # atno 17394 bound_to 11000
  140.6250  133.9958  155.7636 LP  0  0  0  0  0  0  0  0  0  0  0  0  # atno 17395 bound_to 11000

$$$$
