AV-unprocessed.smi:1916|AV-procd|sdf|7767|dock2
  -GOLD-   22720 9513D 1   1.00000     0.00000
 Structure written by MMmdl.
 46 48  0  0  0  0  0  0  0  0  2 V2000
  150.5483  136.2935  156.2859 O   0  0  0  0  0  0  0  0  0  0  0  0
  150.2070  136.5338  155.1277 C   0  0  0  0  0  0  0  0  0  0  0  0
  149.2850  135.8147  154.4700 N   0  0  0  0  0  0  0  0  0  0  0  0
  148.5644  134.6683  155.0168 C   0  0  0  0  0  0  0  0  0  0  0  0
  148.6135  133.4180  154.1132 C   0  0  0  0  0  0  0  0  0  0  0  0
  147.3336  133.1697  153.3332 C   0  0  0  0  0  0  0  0  0  0  0  0
  146.6253  131.9520  153.4242 C   0  0  0  0  0  0  0  0  0  0  0  0
  145.4343  131.7909  152.6855 C   0  0  0  0  0  0  0  0  0  0  0  0
  144.9760  132.8497  151.8743 C   0  0  0  0  0  0  0  0  0  0  0  0
  145.7221  134.0447  151.8208 C   0  0  0  0  0  0  0  0  0  0  0  0
  146.8586  134.1596  152.5417 N   0  3  0  0  0  0  0  0  0  0  0  0
  150.8602  137.6864  154.3495 C   0  0  1  0  0  0  0  0  0  0  0  0
  149.8098  138.6735  153.8081 C   0  0  0  0  0  0  0  0  0  0  0  0
  150.0418  139.9391  154.6163 C   0  0  0  0  0  0  0  0  0  0  0  0
  149.3183  140.9279  154.5119 O   0  0  0  0  0  0  0  0  0  0  0  0
  151.1049  139.8115  155.4249 N   0  0  0  0  0  0  0  0  0  0  0  0
  151.6671  140.8018  156.3545 C   0  0  0  0  0  0  0  0  0  0  0  0
  151.3423  140.5047  157.8355 C   0  0  0  0  0  0  0  0  0  0  0  0
  150.4570  141.6560  158.3186 C   0  0  0  0  0  0  0  0  0  0  0  0
  150.8720  142.8427  157.4540 C   0  0  0  0  0  0  0  0  0  0  0  0
  151.1571  142.2326  156.0808 C   0  0  0  0  0  0  0  0  0  0  0  0
  151.7877  138.5402  155.2396 C   0  0  0  0  0  0  0  0  0  0  0  0
  149.0626  136.0835  153.5220 H   0  0  0  0  0  0  0  0  0  0  0  0
  148.9425  134.4311  156.0124 H   0  0  0  0  0  0  0  0  0  0  0  0
  147.5264  134.9748  155.1488 H   0  0  0  0  0  0  0  0  0  0  0  0
  149.4403  133.5053  153.4068 H   0  0  0  0  0  0  0  0  0  0  0  0
  148.8346  132.5391  154.7196 H   0  0  0  0  0  0  0  0  0  0  0  0
  146.9873  131.1516  154.0534 H   0  0  0  0  0  0  0  0  0  0  0  0
  144.8782  130.8665  152.7422 H   0  0  0  0  0  0  0  0  0  0  0  0
  144.0658  132.7460  151.3016 H   0  0  0  0  0  0  0  0  0  0  0  0
  145.4466  134.9053  151.2287 H   0  0  0  0  0  0  0  0  0  0  0  0
  151.4362  137.2729  153.5196 H   0  0  0  0  0  0  0  0  0  0  0  0
  149.9765  138.8828  152.7511 H   0  0  0  0  0  0  0  0  0  0  0  0
  148.7809  138.3292  153.9249 H   0  0  0  0  0  0  0  0  0  0  0  0
  152.7532  140.7979  156.2469 H   0  0  0  0  0  0  0  0  0  0  0  0
  150.8726  139.5335  157.9964 H   0  0  0  0  0  0  0  0  0  0  0  0
  152.2695  140.5019  158.4100 H   0  0  0  0  0  0  0  0  0  0  0  0
  149.4081  141.4196  158.1361 H   0  0  0  0  0  0  0  0  0  0  0  0
  150.5707  141.8531  159.3849 H   0  0  0  0  0  0  0  0  0  0  0  0
  150.1109  143.6224  157.4165 H   0  0  0  0  0  0  0  0  0  0  0  0
  151.7840  143.2867  157.8552 H   0  0  0  0  0  0  0  0  0  0  0  0
  151.8763  142.8233  155.5130 H   0  0  0  0  0  0  0  0  0  0  0  0
  150.2316  142.2179  155.5040 H   0  0  0  0  0  0  0  0  0  0  0  0
  152.0000  138.0733  156.2032 H   0  0  0  0  0  0  0  0  0  0  0  0
  152.7432  138.7157  154.7435 H   0  0  0  0  0  0  0  0  0  0  0  0
  147.3831  135.0335  152.4898 H   0  0  0  0  0  0  0  0  0  0  0  0
  1  2  2  0  0  0  0
  2  3  1  0  0  0  0
  2 12  1  0  0  0  0
  3  4  1  0  0  0  0
  3 23  1  0  0  0  0
  4  5  1  0  0  0  0
  4 24  1  0  0  0  0
  4 25  1  0  0  0  0
  5  6  1  0  0  0  0
  5 26  1  0  0  0  0
  5 27  1  0  0  0  0
  6 11  1  0  0  0  0
  6  7  2  0  0  0  0
  7  8  1  0  0  0  0
  7 28  1  0  0  0  0
  8  9  2  0  0  0  0
  8 29  1  0  0  0  0
  9 10  1  0  0  0  0
  9 30  1  0  0  0  0
 10 11  2  0  0  0  0
 10 31  1  0  0  0  0
 11 46  1  0  0  0  0
 12 22  1  0  0  0  0
 12 13  1  0  0  0  0
 12 32  1  0  0  0  0
 13 14  1  0  0  0  0
 13 33  1  0  0  0  0
 13 34  1  0  0  0  0
 14 15  2  0  0  0  0
 14 16  1  0  0  0  0
 16 17  1  0  0  0  0
 16 22  1  0  0  0  0
 17 21  1  0  0  0  0
 17 18  1  0  0  0  0
 17 35  1  0  0  0  0
 18 19  1  0  0  0  0
 18 36  1  0  0  0  0
 18 37  1  0  0  0  0
 19 20  1  0  0  0  0
 19 38  1  0  0  0  0
 19 39  1  0  0  0  0
 20 21  1  0  0  0  0
 20 40  1  0  0  0  0
 20 41  1  0  0  0  0
 21 42  1  0  0  0  0
 21 43  1  0  0  0  0
 22 44  1  0  0  0  0
 22 45  1  0  0  0  0
M  CHG  1  11   1
M  END
> <s_m_source_file>
AV-unprocessed.smi

> <i_m_source_file_index>
1916

> <i_lp_mmshare_version>
43012

> <i_f3d_flags>
0

> <s_epik_input>
W0NIMl0xW0NIMl1bQ0gyXVtDSDJdW0NIXTFOKFtDSDJdMilDKD1PKVtDSDJdW0NASF0yQyg9TylbTkhdW0NIMl1bQ0gyXWMzW2NIXVtjSF1bY0hdW2NIXW4z

> <s_epik_cmdline>
J2VwaWtfcHl0aG9uJywgJy1waCcsICc3LjAnLCAnLXRuJywgJzgnLCAnLW1hJywgJzIwMCcsICctbWV0YWxfYmluZGluZycsICctaW1hZScsICc8aW5maWxlLm1hZT4nLCAnLW9tYWUnLCAnPG91dGZpbGUubWFlPic=

> <r_epik_Ionization_Penalty>
1.88249

> <r_epik_Ionization_Penalty_Charging>
1.88249

> <r_epik_Ionization_Penalty_Neutral>
3.64574e-08

> <r_epik_State_Penalty>
2.00238

> <r_epik_Charging_Adjusted_Penalty>
3.88487

> <i_epik_Tot_Q>
1

> <i_epik_Tot_abs_Q>
1

> <r_epik_Metal_State_Penalty>
2.02676

> <b_epik_Metal_Only>
0

> <s_lp_Force_Field>
OPLS_2005

> <r_lp_Energy>
36.1777

> <b_lp_Chiralities_Consistent>
1

> <s_lp_Variant>
AV-unprocessed.smi:1916-4

> <Gold.Version>
5.8.1

> <Gold.Id.Protein>
6NUR|6NUR_protein|mol2

> <Gold.PLP.Fitness>
49.3600

> <Gold.PLP.PLP>
-42.7911

> <Gold.PLP.part.hbond>
-2.4481

> <Gold.PLP.part.metal>
0.0000

> <Gold.PLP.part.buried>
-1.8089

> <Gold.PLP.part.nonpolar>
-37.0188

> <Gold.PLP.part.repulsive>
0.2042

> <Gold.PLP.ligand.clash>
0.1187

> <Gold.PLP.ligand.torsion>
0.9073

> <Gold.PLP.Chemscore.Hbond>
2.8000

> <Gold.PLP.Chemscore.CHOScore>
0.0000

> <Gold.PLP.Chemscore.Metal>
0.0000

> <Gold.Chemscore.Hbonds>
donor molecule, donor type, donor heavy atom, donor atom, acceptor molecule, acceptor atom, score
      L1  H     3    23       P1  7948  1.00
      L1  H    11    46       P1  7948  1.95

> <Gold.PLP.Chemscore.Internal.Correction>
0.1022

> <Gold.Rescore>
     Score         DG    S(hbond)    S(metal)    S(lipo)     H(rot)  DE(clash)    DE(int)     intcor
     13.31     -16.23       1.34        0.00      91.31       1.72       0.15       2.78       ----

> <Gold.Chemscore.Fitness>
13.3094

> <Gold.Chemscore.DG>
-16.2343

> <Gold.Chemscore.ZeroCoef>
-5.4800

> <Gold.Chemscore.Hbond>
1.3363

> <Gold.Chemscore.Metal>
0.0000

> <Gold.Chemscore.Lipo>
91.3100

> <Gold.Chemscore.Internal_Hbond>
0.0000

> <Gold.Chemscore.DEClash>
0.1452

> <Gold.Chemscore.DEInternal>
2.7797

> <Gold.Chemscore.Rot>
1.7158

> <Gold.Chemscore.Internal.Correction>
   9.000000E+99

> <Gold.Chemscore.Hbonds>
donor molecule, donor type, donor heavy atom, donor atom, acceptor molecule, acceptor atom, score
      L1  H     3    23       P1  7948  0.94
      L1  H    11    46       P1  7948  0.88

> <Gold.Chemscore.Hbond.Weighted>
-4.4634

> <Gold.Chemscore.Metal.Weighted>
-0.0000

> <Gold.Chemscore.Lipo.Weighted>
-10.6833

> <Gold.Chemscore.Internal_Hbond.Weighted>
0.0000

> <Gold.Chemscore.DEClash.Weighted>
0.1452

> <Gold.Chemscore.DEInternal.Weighted>
2.7797

> <Gold.Chemscore.Rot.Weighted>
4.3924

> <Gold.Chemscore.Internal.Correction.Weighted>
   9.000000E+99

> <Gold.Protein.RotatedTorsions>
[ 6907 6896 6895 6894 ] final   87.21 input  -60.11 | X-H torsion
[ 7974 7965 7964 7962 ] final  -87.57 input  175.53 | X-H torsion
[ 8008 7997 7996 7995 ] final   79.43 input   59.86 | X-H torsion
[ 10167 10162 10161 10158 ] final  115.43 input  -65.29 | X-H torsion
[ 10718 10713 10712 10709 ] final   -5.01 input   66.30 | X-H torsion
[ 10763 10752 10751 10750 ] final  -51.20 input  -60.55 | X-H torsion
[ 11005 11000 10999 10996 ] final  -37.59 input  -57.11 | X-H torsion

> <Gold.Protein.ActiveResidues>
 VAL166  LYS551  ARG553  GLY616  TRP617  ASP618  TYR619  PRO620  LYS621  CYS622 
 ASP623  PHE694  ASN695  SER759  ASP760  ASP761  ALA762  ILE779  LEU786  VAL792 
 PHE793  MET794  SER795  GLU796  ALA797  LYS798  CYS799  TRP800  GLU811  SER814 

> <Gold.Protein.RotatedAtoms>
  152.5407  134.2312  159.8825 H   0  0  0  0  0  0  0  0  0  0  0  0  # atno 6907 bound_to 6896
  151.2284  133.4457  159.2610 H   0  0  0  0  0  0  0  0  0  0  0  0  # atno 6908 bound_to 6896
  151.0739  134.9829  159.8378 H   0  0  0  0  0  0  0  0  0  0  0  0  # atno 6909 bound_to 6896
  145.4648  140.9560  143.1949 H   0  0  0  0  0  0  0  0  0  0  0  0  # atno 7974 bound_to 7965
  155.8696  140.3449  155.5812 H   0  0  0  0  0  0  0  0  0  0  0  0  # atno 8008 bound_to 7997
  155.7842  140.0862  157.2062 H   0  0  0  0  0  0  0  0  0  0  0  0  # atno 8009 bound_to 7997
  154.4016  140.1495  156.3075 H   0  0  0  0  0  0  0  0  0  0  0  0  # atno 8010 bound_to 7997
  139.6317  144.7115  151.2417 H   0  0  0  0  0  0  0  0  0  0  0  0  # atno 10167 bound_to 10162
  156.7529  130.5245  149.5800 H   0  0  0  0  0  0  0  0  0  0  0  0  # atno 10718 bound_to 10713
  154.1227  135.6532  153.4906 H   0  0  0  0  0  0  0  0  0  0  0  0  # atno 10763 bound_to 10752
  153.0220  135.5274  154.7080 H   0  0  0  0  0  0  0  0  0  0  0  0  # atno 10764 bound_to 10752
  154.6293  135.2974  155.0206 H   0  0  0  0  0  0  0  0  0  0  0  0  # atno 10765 bound_to 10752
  140.9963  133.6978  156.1941 H   0  0  0  0  0  0  0  0  0  0  0  0  # atno 11005 bound_to 11000
  144.7981  139.6195  143.7084 LP  0  0  0  0  0  0  0  0  0  0  0  0  # atno 17320 bound_to 7965
  146.2430  139.6041  142.9478 LP  0  0  0  0  0  0  0  0  0  0  0  0  # atno 17321 bound_to 7965
  140.7443  143.6467  150.8285 LP  0  0  0  0  0  0  0  0  0  0  0  0  # atno 17342 bound_to 10162
  140.0093  143.5659  152.2845 LP  0  0  0  0  0  0  0  0  0  0  0  0  # atno 17343 bound_to 10162
  156.1389  130.6231  151.0440 LP  0  0  0  0  0  0  0  0  0  0  0  0  # atno 17370 bound_to 10713
  157.6769  131.0848  150.7471 LP  0  0  0  0  0  0  0  0  0  0  0  0  # atno 17371 bound_to 10713
  140.6960  134.4615  157.5587 LP  0  0  0  0  0  0  0  0  0  0  0  0  # atno 17394 bound_to 11000
  139.9016  134.8542  156.1871 LP  0  0  0  0  0  0  0  0  0  0  0  0  # atno 17395 bound_to 11000

$$$$
