AV-unprocessed.smi:2067|AV-procd|sdf|8426|dock5
  -GOLD-   2272011123D 1   1.00000     0.00000
 Structure written by MMmdl.
 47 48  0  0  0  0  0  0  0  0  1 V2000
  153.1502  140.6138  159.9156 C   0  0  0  0  0  0  0  0  0  0  0  0
  152.3399  141.8848  160.2137 C   0  0  1  0  0  0  0  0  0  0  0  0
  152.9549  142.6540  161.3997 C   0  0  0  0  0  0  0  0  0  0  0  0
  152.1528  143.9205  161.7323 C   0  0  0  0  0  0  0  0  0  0  0  0
  152.0301  144.8317  160.5037 C   0  0  0  0  0  0  0  0  0  0  0  0
  151.4145  144.0785  159.3149 C   0  0  0  0  0  0  0  0  0  0  0  0
  152.2149  142.8009  158.9736 C   0  0  2  0  0  0  0  0  0  0  0  0
  151.5733  142.0524  157.9466 O   0  0  0  0  0  0  0  0  0  0  0  0
  150.1646  141.9222  158.0796 C   0  0  0  0  0  0  0  0  0  0  0  0
  149.6651  140.9615  156.9955 C   0  0  0  0  0  0  0  0  0  0  0  0
  149.1843  139.7179  157.5786 N   0  0  0  0  0  0  0  0  0  0  0  0
  149.5712  138.4415  157.1854 C   0  0  0  0  0  0  0  0  0  0  0  0
  150.4763  138.2490  156.1857 C   0  0  0  0  0  0  0  0  0  0  0  0
  151.1312  139.3214  155.5051 C   0  0  0  0  0  0  0  0  0  0  0  0
  151.6833  140.1766  154.9525 N   0  0  0  0  0  0  0  0  0  0  0  0
  150.8862  136.9135  155.7539 C   0  0  0  0  0  0  0  0  0  0  0  0
  151.6972  136.7133  154.8473 O   0  0  0  0  0  0  0  0  0  0  0  0
  150.2765  135.8551  156.4627 N   0  0  0  0  0  0  0  0  0  0  0  0
  150.6013  134.4868  156.1126 C   0  0  0  0  0  0  0  0  0  0  0  0
  149.3517  136.0288  157.5100 C   0  0  0  0  0  0  0  0  0  0  0  0
  148.8581  135.0575  158.0922 O   0  0  0  0  0  0  0  0  0  0  0  0
  149.0051  137.3558  157.8592 N   0  0  0  0  0  0  0  0  0  0  0  0
  148.0230  137.4609  158.9185 C   0  0  0  0  0  0  0  0  0  0  0  0
  154.1586  140.8546  159.5783 H   0  0  0  0  0  0  0  0  0  0  0  0
  152.6715  140.0144  159.1417 H   0  0  0  0  0  0  0  0  0  0  0  0
  153.2367  139.9849  160.8018 H   0  0  0  0  0  0  0  0  0  0  0  0
  151.3359  141.5716  160.5045 H   0  0  0  0  0  0  0  0  0  0  0  0
  152.9984  142.0113  162.2799 H   0  0  0  0  0  0  0  0  0  0  0  0
  153.9850  142.9277  161.1671 H   0  0  0  0  0  0  0  0  0  0  0  0
  151.1585  143.6432  162.0848 H   0  0  0  0  0  0  0  0  0  0  0  0
  152.6317  144.4603  162.5497 H   0  0  0  0  0  0  0  0  0  0  0  0
  151.4221  145.7037  160.7466 H   0  0  0  0  0  0  0  0  0  0  0  0
  153.0155  145.2086  160.2272 H   0  0  0  0  0  0  0  0  0  0  0  0
  150.3826  143.8121  159.5477 H   0  0  0  0  0  0  0  0  0  0  0  0
  151.3756  144.7504  158.4577 H   0  0  0  0  0  0  0  0  0  0  0  0
  153.2174  143.0768  158.6408 H   0  0  0  0  0  0  0  0  0  0  0  0
  149.9344  141.5125  159.0632 H   0  0  0  0  0  0  0  0  0  0  0  0
  149.6578  142.8854  157.9968 H   0  0  0  0  0  0  0  0  0  0  0  0
  148.9110  141.4506  156.3822 H   0  0  0  0  0  0  0  0  0  0  0  0
  150.4907  140.7078  156.3305 H   0  0  0  0  0  0  0  0  0  0  0  0
  148.2117  139.7833  157.8425 H   0  0  0  0  0  0  0  0  0  0  0  0
  149.6670  133.9896  155.8454 H   0  0  0  0  0  0  0  0  0  0  0  0
  151.0583  134.0293  156.9919 H   0  0  0  0  0  0  0  0  0  0  0  0
  151.2905  134.4407  155.2704 H   0  0  0  0  0  0  0  0  0  0  0  0
  147.1124  136.9702  158.5695 H   0  0  0  0  0  0  0  0  0  0  0  0
  147.8127  138.5030  159.1474 H   0  0  0  0  0  0  0  0  0  0  0  0
  148.4361  136.9685  159.8006 H   0  0  0  0  0  0  0  0  0  0  0  0
  1  2  1  0  0  0  0
  1 24  1  0  0  0  0
  1 25  1  0  0  0  0
  1 26  1  0  0  0  0
  2  7  1  0  0  0  0
  2  3  1  0  0  0  0
  2 27  1  0  0  0  0
  3  4  1  0  0  0  0
  3 28  1  0  0  0  0
  3 29  1  0  0  0  0
  4  5  1  0  0  0  0
  4 30  1  0  0  0  0
  4 31  1  0  0  0  0
  5  6  1  0  0  0  0
  5 32  1  0  0  0  0
  5 33  1  0  0  0  0
  6  7  1  0  0  0  0
  6 34  1  0  0  0  0
  6 35  1  0  0  0  0
  7  8  1  0  0  0  0
  7 36  1  0  0  0  0
  8  9  1  0  0  0  0
  9 10  1  0  0  0  0
  9 37  1  0  0  0  0
  9 38  1  0  0  0  0
 10 11  1  0  0  0  0
 10 39  1  0  0  0  0
 10 40  1  0  0  0  0
 11 12  1  0  0  0  0
 11 41  1  0  0  0  0
 12 22  1  0  0  0  0
 12 13  2  0  0  0  0
 13 14  1  0  0  0  0
 13 16  1  0  0  0  0
 14 15  3  0  0  0  0
 16 17  2  0  0  0  0
 16 18  1  0  0  0  0
 18 19  1  0  0  0  0
 18 20  1  0  0  0  0
 19 42  1  0  0  0  0
 19 43  1  0  0  0  0
 19 44  1  0  0  0  0
 20 21  2  0  0  0  0
 20 22  1  0  0  0  0
 22 23  1  0  0  0  0
 23 45  1  0  0  0  0
 23 46  1  0  0  0  0
 23 47  1  0  0  0  0
M  END
> <s_m_source_file>
AV-unprocessed.smi

> <i_m_source_file_index>
2067

> <i_lp_mmshare_version>
43012

> <i_f3d_flags>
0

> <s_epik_input>
W0NIM11bQ0BASF0xW0NIMl1bQ0gyXVtDSDJdW0NIMl1bQ0BIXTFPW0NIMl1bQ0gyXVtOSF1jMmMoQyNOKWMoPU8pbihbQ0gzXSljKD1PKW4yW0NIM10=

> <s_epik_cmdline>
J2VwaWtfcHl0aG9uJywgJy1waCcsICc3LjAnLCAnLXRuJywgJzgnLCAnLW1hJywgJzIwMCcsICctbWV0YWxfYmluZGluZycsICctaW1hZScsICc8aW5maWxlLm1hZT4nLCAnLW9tYWUnLCAnPG91dGZpbGUubWFlPic=

> <r_epik_Ionization_Penalty>
0.00056529

> <r_epik_Ionization_Penalty_Charging>
3.94678e-10

> <r_epik_Ionization_Penalty_Neutral>
0.000565289

> <r_epik_State_Penalty>
0.000354611

> <r_epik_Charging_Adjusted_Penalty>
0.000354611

> <i_epik_Tot_Q>
0

> <i_epik_Tot_abs_Q>
0

> <r_epik_Metal_State_Penalty>
-0

> <b_epik_Metal_Only>
0

> <s_lp_Force_Field>
OPLS_2005

> <r_lp_Energy>
31.2775

> <b_lp_Chiralities_Consistent>
1

> <s_lp_Variant>
AV-unprocessed.smi:2067-4

> <Gold.Version>
5.8.1

> <Gold.Id.Protein>
6NUR|6NUR_protein|mol2

> <Gold.PLP.Fitness>
49.0286

> <Gold.PLP.PLP>
-41.1393

> <Gold.PLP.part.hbond>
-2.8166

> <Gold.PLP.part.metal>
0.0000

> <Gold.PLP.part.buried>
-7.0648

> <Gold.PLP.part.nonpolar>
-31.6333

> <Gold.PLP.part.repulsive>
0.3335

> <Gold.PLP.ligand.clash>
10.7747

> <Gold.PLP.ligand.torsion>
0.5509

> <Gold.PLP.Chemscore.Hbond>
2.9920

> <Gold.PLP.Chemscore.CHOScore>
0.0000

> <Gold.PLP.Chemscore.Metal>
0.0000

> <Gold.Chemscore.Hbonds>
donor molecule, donor type, donor heavy atom, donor atom, acceptor molecule, acceptor atom, score
      P1  H  6896  6908       L1    21  0.08
      P1  H  7989  7998       L1    15  0.96
      P1  H 10752 10764       L1    17  1.00

> <Gold.PLP.Chemscore.Internal.Correction>
10.7898

> <Gold.Rescore>
     Score         DG    S(hbond)    S(metal)    S(lipo)     H(rot)  DE(clash)    DE(int)     intcor
     18.77     -22.01       2.82        0.00      99.08       1.76       0.03       3.21       ----

> <Gold.Chemscore.Fitness>
18.7655

> <Gold.Chemscore.DG>
-22.0056

> <Gold.Chemscore.ZeroCoef>
-5.4800

> <Gold.Chemscore.Hbond>
2.8247

> <Gold.Chemscore.Metal>
0.0000

> <Gold.Chemscore.Lipo>
99.0809

> <Gold.Chemscore.Internal_Hbond>
0.0000

> <Gold.Chemscore.DEClash>
0.0341

> <Gold.Chemscore.DEInternal>
3.2059

> <Gold.Chemscore.Rot>
1.7583

> <Gold.Chemscore.Internal.Correction>
   9.000000E+99

> <Gold.Chemscore.Hbonds>
donor molecule, donor type, donor heavy atom, donor atom, acceptor molecule, acceptor atom, score
      P1  H  6896  6908       L1    21  0.06
      P1  H  7989  7998       L1    15  0.91
      P1  H 10752 10764       L1    17  0.98

> <Gold.Chemscore.Hbond.Weighted>
-9.4344

> <Gold.Chemscore.Metal.Weighted>
-0.0000

> <Gold.Chemscore.Lipo.Weighted>
-11.5925

> <Gold.Chemscore.Internal_Hbond.Weighted>
0.0000

> <Gold.Chemscore.DEClash.Weighted>
0.0341

> <Gold.Chemscore.DEInternal.Weighted>
3.2059

> <Gold.Chemscore.Rot.Weighted>
4.5012

> <Gold.Chemscore.Internal.Correction.Weighted>
   9.000000E+99

> <Gold.Protein.RotatedTorsions>
[ 6907 6896 6895 6894 ] final  138.80 input  -60.11 | X-H torsion
[ 7974 7965 7964 7962 ] final -134.94 input  175.53 | X-H torsion
[ 8008 7997 7996 7995 ] final  -65.96 input   59.86 | X-H torsion
[ 10167 10162 10161 10158 ] final  134.22 input  -65.29 | X-H torsion
[ 10718 10713 10712 10709 ] final -150.49 input   66.30 | X-H torsion
[ 10763 10752 10751 10750 ] final  -51.31 input  -60.55 | X-H torsion
[ 11005 11000 10999 10996 ] final  114.52 input  -57.11 | X-H torsion

> <Gold.Protein.ActiveResidues>
 VAL166  LYS551  ARG553  GLY616  TRP617  ASP618  TYR619  PRO620  LYS621  CYS622 
 ASP623  PHE694  ASN695  SER759  ASP760  ASP761  ALA762  ILE779  LEU786  VAL792 
 PHE793  MET794  SER795  GLU796  ALA797  LYS798  CYS799  TRP800  GLU811  SER814 

> <Gold.Protein.RotatedAtoms>
  152.2623  133.5308  159.5388 H   0  0  0  0  0  0  0  0  0  0  0  0  # atno 6907 bound_to 6896
  150.7129  134.0812  159.3907 H   0  0  0  0  0  0  0  0  0  0  0  0  # atno 6908 bound_to 6896
  151.8729  135.0482  160.0532 H   0  0  0  0  0  0  0  0  0  0  0  0  # atno 6909 bound_to 6896
  144.9058  140.6831  143.5056 H   0  0  0  0  0  0  0  0  0  0  0  0  # atno 7974 bound_to 7965
  154.4704  140.0922  156.7130 H   0  0  0  0  0  0  0  0  0  0  0  0  # atno 8008 bound_to 7997
  155.4740  140.3465  155.4311 H   0  0  0  0  0  0  0  0  0  0  0  0  # atno 8009 bound_to 7997
  156.1029  140.1427  156.9432 H   0  0  0  0  0  0  0  0  0  0  0  0  # atno 8010 bound_to 7997
  139.5265  144.6578  151.5109 H   0  0  0  0  0  0  0  0  0  0  0  0  # atno 10167 bound_to 10162
  156.4468  130.8148  151.2379 H   0  0  0  0  0  0  0  0  0  0  0  0  # atno 10718 bound_to 10713
  154.1246  135.6529  153.4910 H   0  0  0  0  0  0  0  0  0  0  0  0  # atno 10763 bound_to 10752
  153.0214  135.5278  154.7062 H   0  0  0  0  0  0  0  0  0  0  0  0  # atno 10764 bound_to 10752
  154.6280  135.2972  155.0220 H   0  0  0  0  0  0  0  0  0  0  0  0  # atno 10765 bound_to 10752
  139.8983  134.9569  156.6905 H   0  0  0  0  0  0  0  0  0  0  0  0  # atno 11005 bound_to 11000
  145.3538  139.1699  143.4420 LP  0  0  0  0  0  0  0  0  0  0  0  0  # atno 17320 bound_to 7965
  146.3133  140.3592  142.8663 LP  0  0  0  0  0  0  0  0  0  0  0  0  # atno 17321 bound_to 7965
  140.6411  143.8887  150.6693 LP  0  0  0  0  0  0  0  0  0  0  0  0  # atno 17342 bound_to 10162
  140.2221  143.3800  152.1634 LP  0  0  0  0  0  0  0  0  0  0  0  0  # atno 17343 bound_to 10162
  157.7504  131.0151  150.3489 LP  0  0  0  0  0  0  0  0  0  0  0  0  # atno 17370 bound_to 10713
  156.3859  130.3889  149.7066 LP  0  0  0  0  0  0  0  0  0  0  0  0  # atno 17371 bound_to 10713
  140.7229  133.9125  155.8159 LP  0  0  0  0  0  0  0  0  0  0  0  0  # atno 17394 bound_to 11000
  141.0213  134.0884  157.4117 LP  0  0  0  0  0  0  0  0  0  0  0  0  # atno 17395 bound_to 11000

$$$$
