AV-unprocessed.smi:1283|AV-procd|sdf|5361|dock4
  -GOLD-   22720 4503D 1   1.00000     0.00000
 Structure written by MMmdl.
 30 31  0  0  0  0  0  0  0  0  1 V2000
  150.7140  137.4177  154.4185 C   0  0  0  0  0  0  0  0  0  0  0  0
  150.6402  138.8110  154.8563 N   0  0  0  0  0  0  0  0  0  0  0  0
  151.7244  139.2390  155.5929 N   0  0  0  0  0  0  0  0  0  0  0  0
  151.7564  140.4521  156.0261 C   0  0  0  0  0  0  0  0  0  0  0  0
  150.6860  141.4069  155.7785 C   0  0  0  0  0  0  0  0  0  0  0  0
  150.7179  142.7155  156.2449 N   0  0  0  0  0  0  0  0  0  0  0  0
  151.7488  143.3807  157.0276 C   0  0  0  0  0  0  0  0  0  0  0  0
  151.2896  143.5993  158.4748 C   0  0  2  0  0  0  0  0  0  0  0  0
  151.3495  145.0579  158.9253 C   0  0  0  0  0  0  0  0  0  0  0  0
  151.5197  144.9618  160.4343 C   0  0  0  0  0  0  0  0  0  0  0  0
  151.8985  143.4977  160.6752 C   0  0  0  0  0  0  0  0  0  0  0  0
  152.1790  142.9732  159.3855 O   0  0  0  0  0  0  0  0  0  0  0  0
  149.6341  140.9584  155.0410 C   0  0  0  0  0  0  0  0  0  0  0  0
  148.3071  142.0119  154.6794 Cl  0  0  0  0  0  0  0  0  0  0  0  0
  149.5641  139.5822  154.5283 C   0  0  0  0  0  0  0  0  0  0  0  0
  148.6238  139.1493  153.8608 O   0  0  0  0  0  0  0  0  0  0  0  0
  150.7038  137.3567  153.3293 H   0  0  0  0  0  0  0  0  0  0  0  0
  149.8659  136.8485  154.8013 H   0  0  0  0  0  0  0  0  0  0  0  0
  151.6234  136.9254  154.7671 H   0  0  0  0  0  0  0  0  0  0  0  0
  152.6062  140.8179  156.6006 H   0  0  0  0  0  0  0  0  0  0  0  0
  149.8460  143.2234  156.1954 H   0  0  0  0  0  0  0  0  0  0  0  0
  152.6789  142.8137  157.0280 H   0  0  0  0  0  0  0  0  0  0  0  0
  151.9602  144.3410  156.5567 H   0  0  0  0  0  0  0  0  0  0  0  0
  150.2812  143.2079  158.6241 H   0  0  0  0  0  0  0  0  0  0  0  0
  152.2210  145.5511  158.4923 H   0  0  0  0  0  0  0  0  0  0  0  0
  150.4647  145.6237  158.6327 H   0  0  0  0  0  0  0  0  0  0  0  0
  152.2997  145.6410  160.7797 H   0  0  0  0  0  0  0  0  0  0  0  0
  150.5982  145.2135  160.9603 H   0  0  0  0  0  0  0  0  0  0  0  0
  152.7559  143.3893  161.3396 H   0  0  0  0  0  0  0  0  0  0  0  0
  151.0603  142.9509  161.1093 H   0  0  0  0  0  0  0  0  0  0  0  0
  1  2  1  0  0  0  0
  1 17  1  0  0  0  0
  1 18  1  0  0  0  0
  1 19  1  0  0  0  0
  2 15  1  0  0  0  0
  2  3  1  0  0  0  0
  3  4  2  0  0  0  0
  4  5  1  0  0  0  0
  4 20  1  0  0  0  0
  5  6  1  0  0  0  0
  5 13  2  0  0  0  0
  6  7  1  0  0  0  0
  6 21  1  0  0  0  0
  7  8  1  0  0  0  0
  7 22  1  0  0  0  0
  7 23  1  0  0  0  0
  8 12  1  0  0  0  0
  8  9  1  0  0  0  0
  8 24  1  0  0  0  0
  9 10  1  0  0  0  0
  9 25  1  0  0  0  0
  9 26  1  0  0  0  0
 10 11  1  0  0  0  0
 10 27  1  0  0  0  0
 10 28  1  0  0  0  0
 11 12  1  0  0  0  0
 11 29  1  0  0  0  0
 11 30  1  0  0  0  0
 13 14  1  0  0  0  0
 13 15  1  0  0  0  0
 15 16  2  0  0  0  0
M  END
> <s_m_source_file>
AV-unprocessed.smi

> <i_m_source_file_index>
1283

> <i_lp_mmshare_version>
43012

> <i_f3d_flags>
0

> <s_epik_input>
W0NIM11uMW5bY0hdYyhjKENsKWMxPU8pW05IXVtDSDJdW0NAQEhdMltDSDJdW0NIMl1bQ0gyXU8y

> <s_epik_cmdline>
J2VwaWtfcHl0aG9uJywgJy1waCcsICc3LjAnLCAnLXRuJywgJzgnLCAnLW1hJywgJzIwMCcsICctbWV0YWxfYmluZGluZycsICctaW1hZScsICc8aW5maWxlLm1hZT4nLCAnLW9tYWUnLCAnPG91dGZpbGUubWFlPic=

> <r_lp_tautomer_probability>
1

> <r_epik_Ionization_Penalty>
2.40876e-05

> <r_epik_Ionization_Penalty_Charging>
4.17655e-09

> <r_epik_Ionization_Penalty_Neutral>
2.40834e-05

> <r_epik_State_Penalty>
-0

> <r_epik_Charging_Adjusted_Penalty>
4.17655e-09

> <i_epik_Tot_Q>
0

> <i_epik_Tot_abs_Q>
0

> <r_epik_Metal_State_Penalty>
-0

> <b_epik_Metal_Only>
0

> <s_lp_Force_Field>
OPLS_2005

> <r_lp_Energy>
38.2243

> <b_lp_Chiralities_Consistent>
1

> <s_lp_Variant>
AV-unprocessed.smi:1283-1

> <Gold.Version>
5.8.1

> <Gold.Id.Protein>
6NUR|6NUR_protein|mol2

> <Gold.PLP.Fitness>
35.3911

> <Gold.PLP.PLP>
-34.0824

> <Gold.PLP.part.hbond>
-1.0000

> <Gold.PLP.part.metal>
0.0000

> <Gold.PLP.part.buried>
-3.8485

> <Gold.PLP.part.nonpolar>
-29.7437

> <Gold.PLP.part.repulsive>
0.7944

> <Gold.PLP.ligand.clash>
0.0000

> <Gold.PLP.ligand.torsion>
0.8140

> <Gold.PLP.Chemscore.Hbond>
0.9760

> <Gold.PLP.Chemscore.CHOScore>
0.0000

> <Gold.PLP.Chemscore.Metal>
0.0000

> <Gold.Chemscore.Hbonds>
donor molecule, donor type, donor heavy atom, donor atom, acceptor molecule, acceptor atom, score
      L1  H     6    21       P1  8028  0.99

> <Gold.PLP.Chemscore.Internal.Correction>
0.0088

> <Gold.Rescore>
     Score         DG    S(hbond)    S(metal)    S(lipo)     H(rot)  DE(clash)    DE(int)     intcor
     13.85     -16.29       0.92        0.00      92.98       1.22       1.71       0.74       ----

> <Gold.Chemscore.Fitness>
13.8458

> <Gold.Chemscore.DG>
-16.2937

> <Gold.Chemscore.ZeroCoef>
-5.4800

> <Gold.Chemscore.Hbond>
0.9163

> <Gold.Chemscore.Metal>
0.0000

> <Gold.Chemscore.Lipo>
92.9794

> <Gold.Chemscore.Internal_Hbond>
0.0000

> <Gold.Chemscore.DEClash>
1.7083

> <Gold.Chemscore.DEInternal>
0.7396

> <Gold.Chemscore.Rot>
1.2208

> <Gold.Chemscore.Internal.Correction>
   9.000000E+99

> <Gold.Chemscore.Hbonds>
donor molecule, donor type, donor heavy atom, donor atom, acceptor molecule, acceptor atom, score
      L1  H     6    21       P1  8028  0.94

> <Gold.Chemscore.Hbond.Weighted>
-3.0604

> <Gold.Chemscore.Metal.Weighted>
-0.0000

> <Gold.Chemscore.Lipo.Weighted>
-10.8786

> <Gold.Chemscore.Internal_Hbond.Weighted>
0.0000

> <Gold.Chemscore.DEClash.Weighted>
1.7083

> <Gold.Chemscore.DEInternal.Weighted>
0.7396

> <Gold.Chemscore.Rot.Weighted>
3.1253

> <Gold.Chemscore.Internal.Correction.Weighted>
   9.000000E+99

> <Gold.Protein.RotatedTorsions>
[ 6907 6896 6895 6894 ] final -155.17 input  -60.11 | X-H torsion
[ 7974 7965 7964 7962 ] final   38.09 input  175.53 | X-H torsion
[ 8008 7997 7996 7995 ] final  161.77 input   59.86 | X-H torsion
[ 10167 10162 10161 10158 ] final   24.69 input  -65.29 | X-H torsion
[ 10718 10713 10712 10709 ] final -171.85 input   66.30 | X-H torsion
[ 10763 10752 10751 10750 ] final  -17.86 input  -60.55 | X-H torsion
[ 11005 11000 10999 10996 ] final  117.18 input  -57.11 | X-H torsion

> <Gold.Protein.ActiveResidues>
 VAL166  LYS551  ARG553  GLY616  TRP617  ASP618  TYR619  PRO620  LYS621  CYS622 
 ASP623  PHE694  ASN695  SER759  ASP760  ASP761  ALA762  ILE779  LEU786  VAL792 
 PHE793  MET794  SER795  GLU796  ALA797  LYS798  CYS799  TRP800  GLU811  SER814 

> <Gold.Protein.RotatedAtoms>
  151.2684  133.4267  159.2619 H   0  0  0  0  0  0  0  0  0  0  0  0  # atno 6907 bound_to 6896
  151.0467  134.9645  159.8200 H   0  0  0  0  0  0  0  0  0  0  0  0  # atno 6908 bound_to 6896
  152.5375  134.2640  159.8999 H   0  0  0  0  0  0  0  0  0  0  0  0  # atno 6909 bound_to 6896
  146.1088  139.5814  142.9366 H   0  0  0  0  0  0  0  0  0  0  0  0  # atno 7974 bound_to 7965
  156.2079  140.1768  156.7758 H   0  0  0  0  0  0  0  0  0  0  0  0  # atno 8008 bound_to 7997
  154.5681  140.0687  156.8953 H   0  0  0  0  0  0  0  0  0  0  0  0  # atno 8009 bound_to 7997
  155.2723  140.3343  155.4267 H   0  0  0  0  0  0  0  0  0  0  0  0  # atno 8010 bound_to 7997
  140.5168  144.0070  150.6397 H   0  0  0  0  0  0  0  0  0  0  0  0  # atno 10167 bound_to 10162
  156.7470  130.9364  151.3113 H   0  0  0  0  0  0  0  0  0  0  0  0  # atno 10718 bound_to 10713
  153.5803  135.7005  153.5466 H   0  0  0  0  0  0  0  0  0  0  0  0  # atno 10763 bound_to 10752
  153.3267  135.4059  155.1461 H   0  0  0  0  0  0  0  0  0  0  0  0  # atno 10764 bound_to 10752
  154.8618  135.3709  154.5330 H   0  0  0  0  0  0  0  0  0  0  0  0  # atno 10765 bound_to 10752
  139.9066  134.9607  156.7311 H   0  0  0  0  0  0  0  0  0  0  0  0  # atno 11005 bound_to 11000
  145.5706  141.0394  143.2176 LP  0  0  0  0  0  0  0  0  0  0  0  0  # atno 17320 bound_to 7965
  144.7493  139.7235  143.7279 LP  0  0  0  0  0  0  0  0  0  0  0  0  # atno 17321 bound_to 7965
  140.3407  143.3021  152.0591 LP  0  0  0  0  0  0  0  0  0  0  0  0  # atno 17342 bound_to 10162
  139.4911  144.6444  151.6809 LP  0  0  0  0  0  0  0  0  0  0  0  0  # atno 17343 bound_to 10162
  157.6794  130.9125  150.0229 LP  0  0  0  0  0  0  0  0  0  0  0  0  # atno 17370 bound_to 10713
  156.1427  130.3642  149.9558 LP  0  0  0  0  0  0  0  0  0  0  0  0  # atno 17371 bound_to 10713
  140.6924  133.9378  155.7974 LP  0  0  0  0  0  0  0  0  0  0  0  0  # atno 17394 bound_to 11000
  141.0431  134.0592  157.3877 LP  0  0  0  0  0  0  0  0  0  0  0  0  # atno 17395 bound_to 11000

$$$$
