AV-unprocessed.smi:645|AV-procd|sdf|3164|dock8
  -GOLD-   22720 0 83D 1   1.00000     0.00000
 Structure written by MMmdl.
 22 23  0  0  0  0  0  0  0  0  2 V2000
  151.4788  140.5713  157.1446 C   0  0  0  0  0  0  0  0  0  0  0  0
  152.1477  139.5828  158.1249 C   0  0  2  0  0  0  0  0  0  0  0  0
  152.7983  140.3126  159.3168 C   0  0  0  0  0  0  0  0  0  0  0  0
  152.7550  141.7221  159.4606 C   0  0  0  0  0  0  0  0  0  0  0  0
  153.3717  142.3168  160.5790 C   0  0  0  0  0  0  0  0  0  0  0  0
  154.0114  141.6148  161.5372 N   0  0  0  0  0  0  0  0  0  0  0  0
  154.0554  140.2733  161.4036 C   0  0  0  0  0  0  0  0  0  0  0  0
  153.4713  139.5815  160.3249 C   0  0  0  0  0  0  0  0  0  0  0  0
  153.0651  138.7320  157.3751 N   0  5  0  0  0  0  0  0  0  0  0  0
  152.6669  137.4435  157.4908 C   0  0  0  0  0  0  0  0  0  0  0  0
  153.2006  136.4453  157.0126 O   0  0  0  0  0  0  0  0  0  0  0  0
  151.5546  137.3591  158.2253 N   0  0  0  0  0  0  0  0  0  0  0  0
  151.1427  138.5550  158.6344 C   0  0  0  0  0  0  0  0  0  0  0  0
  150.1340  138.8034  159.2949 O   0  0  0  0  0  0  0  0  0  0  0  0
  150.6858  141.1493  157.6187 H   0  0  0  0  0  0  0  0  0  0  0  0
  151.0293  140.0536  156.2955 H   0  0  0  0  0  0  0  0  0  0  0  0
  152.2066  141.2790  156.7461 H   0  0  0  0  0  0  0  0  0  0  0  0
  152.2630  142.3533  158.7360 H   0  0  0  0  0  0  0  0  0  0  0  0
  153.3504  143.3889  160.7070 H   0  0  0  0  0  0  0  0  0  0  0  0
  154.5747  139.7324  162.1808 H   0  0  0  0  0  0  0  0  0  0  0  0
  153.5498  138.5059  160.2751 H   0  0  0  0  0  0  0  0  0  0  0  0
  151.0764  136.4945  158.4296 H   0  0  0  0  0  0  0  0  0  0  0  0
  1  2  1  0  0  0  0
  1 15  1  0  0  0  0
  1 16  1  0  0  0  0
  1 17  1  0  0  0  0
  2 13  1  0  0  0  0
  2  3  1  0  0  0  0
  2  9  1  0  0  0  0
  3  8  1  0  0  0  0
  3  4  2  0  0  0  0
  4  5  1  0  0  0  0
  4 18  1  0  0  0  0
  5  6  2  0  0  0  0
  5 19  1  0  0  0  0
  6  7  1  0  0  0  0
  7  8  2  0  0  0  0
  7 20  1  0  0  0  0
  8 21  1  0  0  0  0
  9 10  1  0  0  0  0
 10 11  2  0  0  0  0
 10 12  1  0  0  0  0
 12 13  1  0  0  0  0
 12 22  1  0  0  0  0
 13 14  2  0  0  0  0
M  CHG  1   9  -1
M  END
> <s_m_source_file>
AV-unprocessed.smi

> <i_m_source_file_index>
645

> <i_lp_mmshare_version>
43012

> <i_f3d_flags>
0

> <s_epik_input>
Tz1DMVtOSF1DKD1PKVtOSF1bQ0BAXTEoW0NIM10pYzJbY0hdW2NIXW5bY0hdW2NIXTI=

> <s_epik_cmdline>
J2VwaWtfcHl0aG9uJywgJy1waCcsICc3LjAnLCAnLXRuJywgJzgnLCAnLW1hJywgJzIwMCcsICctbWV0YWxfYmluZGluZycsICctaW1hZScsICc8aW5maWxlLm1hZT4nLCAnLW9tYWUnLCAnPG91dGZpbGUubWFlPic=

> <r_lp_tautomer_probability>
1

> <r_epik_Ionization_Penalty>
4.86801

> <r_epik_Ionization_Penalty_Charging>
4.8337

> <r_epik_Ionization_Penalty_Neutral>
0.0343087

> <r_epik_State_Penalty>
4.85653

> <r_epik_Charging_Adjusted_Penalty>
9.69023

> <i_epik_Tot_Q>
-1

> <i_epik_Tot_abs_Q>
1

> <r_epik_Metal_State_Penalty>
1.32058

> <b_epik_Metal_Only>
1

> <s_lp_Force_Field>
OPLS_2005

> <r_lp_Energy>
14.3198

> <b_lp_Chiralities_Consistent>
1

> <s_lp_Variant>
AV-unprocessed.smi:645-6

> <Gold.Version>
5.8.1

> <Gold.Id.Protein>
6NUR|6NUR_protein|mol2

> <Gold.PLP.Fitness>
31.7831

> <Gold.PLP.PLP>
-22.7840

> <Gold.PLP.part.hbond>
-3.6662

> <Gold.PLP.part.metal>
0.0000

> <Gold.PLP.part.buried>
-3.3855

> <Gold.PLP.part.nonpolar>
-16.0222

> <Gold.PLP.part.repulsive>
0.1002

> <Gold.PLP.ligand.clash>
0.0000

> <Gold.PLP.ligand.torsion>
0.0276

> <Gold.PLP.Chemscore.Hbond>
3.0000

> <Gold.PLP.Chemscore.CHOScore>
0.0000

> <Gold.PLP.Chemscore.Metal>
0.0000

> <Gold.Chemscore.Hbonds>
donor molecule, donor type, donor heavy atom, donor atom, acceptor molecule, acceptor atom, score
      P1  H  7997  8008       L1     9  2.00
      P1  H 10752 10764       L1    11  0.93

> <Gold.PLP.Chemscore.Internal.Correction>
0.0543

> <Gold.Rescore>
     Score         DG    S(hbond)    S(metal)    S(lipo)     H(rot)  DE(clash)    DE(int)     intcor
     14.75     -14.78       1.74        0.00      51.67       1.00       0.00       0.03       ----

> <Gold.Chemscore.Fitness>
14.7513

> <Gold.Chemscore.DG>
-14.7792

> <Gold.Chemscore.ZeroCoef>
-5.4800

> <Gold.Chemscore.Hbond>
1.7405

> <Gold.Chemscore.Metal>
0.0000

> <Gold.Chemscore.Lipo>
51.6743

> <Gold.Chemscore.Internal_Hbond>
0.0000

> <Gold.Chemscore.DEClash>
0.0000

> <Gold.Chemscore.DEInternal>
0.0279

> <Gold.Chemscore.Rot>
1.0000

> <Gold.Chemscore.Internal.Correction>
   9.000000E+99

> <Gold.Chemscore.Hbonds>
donor molecule, donor type, donor heavy atom, donor atom, acceptor molecule, acceptor atom, score
      P1  H  7997  8008       L1     9  0.34
      P1  H 10752 10764       L1    11  0.85

> <Gold.Chemscore.Hbond.Weighted>
-5.8133

> <Gold.Chemscore.Metal.Weighted>
-0.0000

> <Gold.Chemscore.Lipo.Weighted>
-6.0459

> <Gold.Chemscore.Internal_Hbond.Weighted>
0.0000

> <Gold.Chemscore.DEClash.Weighted>
0.0000

> <Gold.Chemscore.DEInternal.Weighted>
0.0279

> <Gold.Chemscore.Rot.Weighted>
2.5600

> <Gold.Chemscore.Internal.Correction.Weighted>
   9.000000E+99

> <Gold.Protein.RotatedTorsions>
[ 6907 6896 6895 6894 ] final -101.10 input  -60.11 | X-H torsion
[ 7974 7965 7964 7962 ] final -163.83 input  175.53 | X-H torsion
[ 8008 7997 7996 7995 ] final  -70.34 input   59.86 | X-H torsion
[ 10167 10162 10161 10158 ] final -105.91 input  -65.29 | X-H torsion
[ 10718 10713 10712 10709 ] final -158.25 input   66.30 | X-H torsion
[ 10763 10752 10751 10750 ] final   17.58 input  -60.55 | X-H torsion
[ 11005 11000 10999 10996 ] final  -80.83 input  -57.11 | X-H torsion

> <Gold.Protein.ActiveResidues>
 VAL166  LYS551  ARG553  GLY616  TRP617  ASP618  TYR619  PRO620  LYS621  CYS622 
 ASP623  PHE694  ASN695  SER759  ASP760  ASP761  ALA762  ILE779  LEU786  VAL792 
 PHE793  MET794  SER795  GLU796  ALA797  LYS798  CYS799  TRP800  GLU811  SER814 

> <Gold.Protein.RotatedAtoms>
  150.7141  134.0786  159.3889 H   0  0  0  0  0  0  0  0  0  0  0  0  # atno 6907 bound_to 6896
  151.8770  135.0466  160.0494 H   0  0  0  0  0  0  0  0  0  0  0  0  # atno 6908 bound_to 6896
  152.2598  133.5252  159.5411 H   0  0  0  0  0  0  0  0  0  0  0  0  # atno 6909 bound_to 6896
  144.7314  140.3049  143.6198 H   0  0  0  0  0  0  0  0  0  0  0  0  # atno 7974 bound_to 7965
  154.5005  140.0836  156.7787 H   0  0  0  0  0  0  0  0  0  0  0  0  # atno 8008 bound_to 7997
  155.4015  140.3437  155.4239 H   0  0  0  0  0  0  0  0  0  0  0  0  # atno 8009 bound_to 7997
  156.1450  140.1541  156.8849 H   0  0  0  0  0  0  0  0  0  0  0  0  # atno 8010 bound_to 7997
  140.1935  143.3873  152.1187 H   0  0  0  0  0  0  0  0  0  0  0  0  # atno 10167 bound_to 10162
  156.5515  130.8607  151.2781 H   0  0  0  0  0  0  0  0  0  0  0  0  # atno 10718 bound_to 10713
  153.1325  135.6743  153.9155 H   0  0  0  0  0  0  0  0  0  0  0  0  # atno 10763 bound_to 10752
  153.8636  135.3078  155.3440 H   0  0  0  0  0  0  0  0  0  0  0  0  # atno 10764 bound_to 10752
  154.7720  135.4934  153.9749 H   0  0  0  0  0  0  0  0  0  0  0  0  # atno 10765 bound_to 10752
  141.1667  133.7168  156.8332 H   0  0  0  0  0  0  0  0  0  0  0  0  # atno 11005 bound_to 11000
  145.7723  139.1861  143.2205 LP  0  0  0  0  0  0  0  0  0  0  0  0  # atno 17320 bound_to 7965
  146.0901  140.7666  142.9599 LP  0  0  0  0  0  0  0  0  0  0  0  0  # atno 17321 bound_to 7965
  139.5246  144.7086  151.5278 LP  0  0  0  0  0  0  0  0  0  0  0  0  # atno 17342 bound_to 10162
  140.6440  143.8833  150.6719 LP  0  0  0  0  0  0  0  0  0  0  0  0  # atno 17343 bound_to 10162
  157.7386  130.9817  150.2265 LP  0  0  0  0  0  0  0  0  0  0  0  0  # atno 17370 bound_to 10713
  156.2880  130.3742  149.7870 LP  0  0  0  0  0  0  0  0  0  0  0  0  # atno 17371 bound_to 10713
  140.2036  134.8879  157.3197 LP  0  0  0  0  0  0  0  0  0  0  0  0  # atno 17394 bound_to 11000
  140.2161  134.4080  155.7588 LP  0  0  0  0  0  0  0  0  0  0  0  0  # atno 17395 bound_to 11000

$$$$
