AV-unprocessed.smi:11|AV-procd|sdf|59|dock9
  -GOLD-   2262015173D 1   1.00000     0.00000
 Structure written by MMmdl.
 33 35  0  0  0  0  0  0  0  0  1 V2000
  146.9668  137.4643  153.8174 C   0  0  0  0  0  0  0  0  0  0  0  0
  146.5145  138.9078  154.0967 C   0  0  0  0  0  0  0  0  0  0  0  0
  147.2005  139.9946  153.2316 C   0  0  1  0  0  0  0  0  0  0  0  0
  146.9295  139.7272  151.8692 O   0  0  0  0  0  0  0  0  0  0  0  0
  146.7012  141.4001  153.5910 C   0  0  0  0  0  0  0  0  0  0  0  0
  147.6186  141.8123  154.7395 C   0  0  0  0  0  0  0  0  0  0  0  0
  148.9006  141.1889  154.4380 N   0  0  0  0  0  0  0  0  0  0  0  0
  149.9045  141.1033  155.4263 C   0  0  0  0  0  0  0  0  0  0  0  0
  149.7740  141.8650  156.5429 N   0  0  0  0  0  0  0  0  0  0  0  0
  150.7404  141.7721  157.4910 C   0  0  0  0  0  0  0  0  0  0  0  0
  151.8563  141.0030  157.4710 N   0  0  0  0  0  0  0  0  0  0  0  0
  152.0184  140.2398  156.3499 C   0  0  0  0  0  0  0  0  0  0  0  0
  153.0212  139.4159  156.0644 N   0  0  0  0  0  0  0  0  0  0  0  0
  152.7563  138.9071  154.8496 C   0  0  0  0  0  0  0  0  0  0  0  0
  151.5223  139.4025  154.2784 C   0  0  0  0  0  0  0  0  0  0  0  0
  151.0558  140.2740  155.3112 C   0  0  0  0  0  0  0  0  0  0  0  0
  148.7173  140.1072  153.4776 C   0  0  0  0  0  0  0  0  0  0  0  0
  146.4163  136.7649  154.4465 H   0  0  0  0  0  0  0  0  0  0  0  0
  148.0265  137.3204  154.0244 H   0  0  0  0  0  0  0  0  0  0  0  0
  146.7852  137.1811  152.7806 H   0  0  0  0  0  0  0  0  0  0  0  0
  145.4354  138.9616  153.9463 H   0  0  0  0  0  0  0  0  0  0  0  0
  146.6773  139.1229  155.1536 H   0  0  0  0  0  0  0  0  0  0  0  0
  147.7275  139.8442  151.3767 H   0  0  0  0  0  0  0  0  0  0  0  0
  146.8532  142.0833  152.7536 H   0  0  0  0  0  0  0  0  0  0  0  0
  145.6442  141.4352  153.8577 H   0  0  0  0  0  0  0  0  0  0  0  0
  147.7096  142.8961  154.8151 H   0  0  0  0  0  0  0  0  0  0  0  0
  147.2271  141.4341  155.6848 H   0  0  0  0  0  0  0  0  0  0  0  0
  150.6034  142.3868  158.3682 H   0  0  0  0  0  0  0  0  0  0  0  0
  153.4300  138.2024  154.3778 H   0  0  0  0  0  0  0  0  0  0  0  0
  151.0822  139.1666  153.3183 H   0  0  0  0  0  0  0  0  0  0  0  0
  149.1484  139.1701  153.8276 H   0  0  0  0  0  0  0  0  0  0  0  0
  149.2327  140.3890  152.5587 H   0  0  0  0  0  0  0  0  0  0  0  0
  152.4966  141.0343  158.2514 H   0  0  0  0  0  0  0  0  0  0  0  0
  1  2  1  0  0  0  0
  1 18  1  0  0  0  0
  1 19  1  0  0  0  0
  1 20  1  0  0  0  0
  2  3  1  0  0  0  0
  2 21  1  0  0  0  0
  2 22  1  0  0  0  0
  3 17  1  0  0  0  0
  3  4  1  0  0  0  0
  3  5  1  0  0  0  0
  4 23  1  0  0  0  0
  5  6  1  0  0  0  0
  5 24  1  0  0  0  0
  5 25  1  0  0  0  0
  6  7  1  0  0  0  0
  6 26  1  0  0  0  0
  6 27  1  0  0  0  0
  7  8  1  0  0  0  0
  7 17  1  0  0  0  0
  8 16  2  0  0  0  0
  8  9  1  0  0  0  0
  9 10  2  0  0  0  0
 10 11  1  0  0  0  0
 10 28  1  0  0  0  0
 11 12  1  0  0  0  0
 11 33  1  0  0  0  0
 12 16  1  0  0  0  0
 12 13  2  0  0  0  0
 13 14  1  0  0  0  0
 14 15  2  0  0  0  0
 14 29  1  0  0  0  0
 15 16  1  0  0  0  0
 15 30  1  0  0  0  0
 17 31  1  0  0  0  0
 17 32  1  0  0  0  0
M  END
> <s_m_source_file>
AV-unprocessed.smi

> <i_m_source_file_index>
11

> <i_lp_mmshare_version>
43012

> <i_f3d_flags>
0

> <s_epik_input>
W0NIM11bQ0gyXVtDQEBdMShbT0hdKVtDSDJdW0NIMl1OKFtDSDJdMSljKG5bY0hdbjIpYyhjMjMpW2NIXVtjSF1bbkhdMw==

> <s_epik_cmdline>
J2VwaWtfcHl0aG9uJywgJy1waCcsICc3LjAnLCAnLXRuJywgJzgnLCAnLW1hJywgJzIwMCcsICctbWV0YWxfYmluZGluZycsICctaW1hZScsICc8aW5maWxlLm1hZT4nLCAnLW9tYWUnLCAnPG91dGZpbGUubWFlPic=

> <r_lp_tautomer_probability>
1.75997e-05

> <r_epik_Ionization_Penalty>
5.31594

> <r_epik_Ionization_Penalty_Charging>
0

> <r_epik_Ionization_Penalty_Neutral>
5.31594

> <r_epik_State_Penalty>
7.79803

> <r_epik_Charging_Adjusted_Penalty>
7.79803

> <i_epik_Tot_Q>
0

> <i_epik_Tot_abs_Q>
0

> <r_epik_Metal_State_Penalty>
4.83511

> <b_epik_Metal_Only>
1

> <s_lp_Force_Field>
OPLS_2005

> <r_lp_Energy>
41.5281

> <b_lp_Chiralities_Consistent>
1

> <s_lp_Variant>
AV-unprocessed.smi:11-5

> <Gold.Version>
5.8.1

> <Gold.Id.Protein>
6NUR|6NUR_protein|mol2

> <Gold.PLP.Fitness>
37.1145

> <Gold.PLP.PLP>
-31.1170

> <Gold.PLP.part.hbond>
-2.0000

> <Gold.PLP.part.metal>
0.0000

> <Gold.PLP.part.buried>
-0.5444

> <Gold.PLP.part.nonpolar>
-29.0217

> <Gold.PLP.part.repulsive>
0.9558

> <Gold.PLP.ligand.clash>
0.0000

> <Gold.PLP.ligand.torsion>
0.1556

> <Gold.PLP.Chemscore.Hbond>
2.0000

> <Gold.PLP.Chemscore.CHOScore>
0.0000

> <Gold.PLP.Chemscore.Metal>
0.0000

> <Gold.Chemscore.Hbonds>
donor molecule, donor type, donor heavy atom, donor atom, acceptor molecule, acceptor atom, score
      L1  H     4    23       P1  7957  1.00
      P1  H  7997  8010       L1    13  1.00

> <Gold.PLP.Chemscore.Internal.Correction>
0.3087

> <Gold.Rescore>
     Score         DG    S(hbond)    S(metal)    S(lipo)     H(rot)  DE(clash)    DE(int)     intcor
     11.65     -12.60       1.39        0.00      52.51       1.43       0.71       0.24       ----

> <Gold.Chemscore.Fitness>
11.6529

> <Gold.Chemscore.DG>
-12.5987

> <Gold.Chemscore.ZeroCoef>
-5.4800

> <Gold.Chemscore.Hbond>
1.3866

> <Gold.Chemscore.Metal>
0.0000

> <Gold.Chemscore.Lipo>
52.5128

> <Gold.Chemscore.Internal_Hbond>
0.0000

> <Gold.Chemscore.DEClash>
0.7097

> <Gold.Chemscore.DEInternal>
0.2361

> <Gold.Chemscore.Rot>
1.4283

> <Gold.Chemscore.Internal.Correction>
   9.000000E+99

> <Gold.Chemscore.Hbonds>
donor molecule, donor type, donor heavy atom, donor atom, acceptor molecule, acceptor atom, score
      L1  H     4    23       P1  7957  0.98
      P1  H  7997  8010       L1    13  0.66

> <Gold.Chemscore.Hbond.Weighted>
-4.6312

> <Gold.Chemscore.Metal.Weighted>
-0.0000

> <Gold.Chemscore.Lipo.Weighted>
-6.1440

> <Gold.Chemscore.Internal_Hbond.Weighted>
0.0000

> <Gold.Chemscore.DEClash.Weighted>
0.7097

> <Gold.Chemscore.DEInternal.Weighted>
0.2361

> <Gold.Chemscore.Rot.Weighted>
3.6566

> <Gold.Chemscore.Internal.Correction.Weighted>
   9.000000E+99

> <Gold.Protein.RotatedTorsions>
[ 6907 6896 6895 6894 ] final -122.58 input  -60.11 | X-H torsion
[ 7974 7965 7964 7962 ] final -179.60 input  175.53 | X-H torsion
[ 8008 7997 7996 7995 ] final   69.11 input   59.86 | X-H torsion
[ 10167 10162 10161 10158 ] final   90.94 input  -65.29 | X-H torsion
[ 10718 10713 10712 10709 ] final -107.76 input   66.30 | X-H torsion
[ 10763 10752 10751 10750 ] final   80.16 input  -60.55 | X-H torsion
[ 11005 11000 10999 10996 ] final   48.96 input  -57.11 | X-H torsion

> <Gold.Protein.ActiveResidues>
 VAL166  LYS551  ARG553  GLY616  TRP617  ASP618  TYR619  PRO620  LYS621  CYS622 
 ASP623  PHE694  ASN695  SER759  ASP760  ASP761  ALA762  ILE779  LEU786  VAL792 
 PHE793  MET794  SER795  GLU796  ALA797  LYS798  CYS799  TRP800  GLU811  SER814 

> <Gold.Protein.RotatedAtoms>
  150.8590  133.7673  159.2998 H   0  0  0  0  0  0  0  0  0  0  0  0  # atno 6907 bound_to 6896
  151.5321  135.1067  159.9915 H   0  0  0  0  0  0  0  0  0  0  0  0  # atno 6908 bound_to 6896
  152.4611  133.7781  159.6891 H   0  0  0  0  0  0  0  0  0  0  0  0  # atno 6909 bound_to 6896
  144.7138  140.0693  143.6430 H   0  0  0  0  0  0  0  0  0  0  0  0  # atno 7974 bound_to 7965
  155.7186  140.3493  155.5005 H   0  0  0  0  0  0  0  0  0  0  0  0  # atno 8008 bound_to 7997
  155.9291  140.1081  157.1168 H   0  0  0  0  0  0  0  0  0  0  0  0  # atno 8009 bound_to 7997
  154.4082  140.1235  156.4765 H   0  0  0  0  0  0  0  0  0  0  0  0  # atno 8010 bound_to 7997
  139.8423  144.6635  150.9268 H   0  0  0  0  0  0  0  0  0  0  0  0  # atno 10167 bound_to 10162
  156.0452  130.5679  150.7867 H   0  0  0  0  0  0  0  0  0  0  0  0  # atno 10718 bound_to 10713
  153.1011  135.4813  154.8868 H   0  0  0  0  0  0  0  0  0  0  0  0  # atno 10763 bound_to 10752
  154.7380  135.3075  154.8781 H   0  0  0  0  0  0  0  0  0  0  0  0  # atno 10764 bound_to 10752
  153.9397  135.6835  153.4798 H   0  0  0  0  0  0  0  0  0  0  0  0  # atno 10765 bound_to 10752
  140.1145  134.4911  155.8649 H   0  0  0  0  0  0  0  0  0  0  0  0  # atno 11005 bound_to 11000
  145.9797  139.2932  143.1049 LP  0  0  0  0  0  0  0  0  0  0  0  0  # atno 17320 bound_to 7965
  145.9024  140.9234  143.0496 LP  0  0  0  0  0  0  0  0  0  0  0  0  # atno 17321 bound_to 7965
  140.7797  143.3901  151.1324 LP  0  0  0  0  0  0  0  0  0  0  0  0  # atno 17342 bound_to 10162
  139.7547  143.8726  152.3085 LP  0  0  0  0  0  0  0  0  0  0  0  0  # atno 17343 bound_to 10162
  157.5319  131.0937  150.9943 LP  0  0  0  0  0  0  0  0  0  0  0  0  # atno 17370 bound_to 10713
  157.0247  130.5688  149.5335 LP  0  0  0  0  0  0  0  0  0  0  0  0  # atno 17371 bound_to 10713
  141.2138  133.6739  156.6769 LP  0  0  0  0  0  0  0  0  0  0  0  0  # atno 17394 bound_to 11000
  140.3047  134.8135  157.4127 LP  0  0  0  0  0  0  0  0  0  0  0  0  # atno 17395 bound_to 11000

$$$$
