AV-unprocessed.smi:2114|AV-procd|sdf|8622|dock8
  -GOLD-   2272011363D 1   1.00000     0.00000
 Structure written by MMmdl.
 47 48  0  0  0  0  0  0  0  0  1 V2000
  155.4784  140.3720  169.3362 C   0  0  0  0  0  0  0  0  0  0  0  0
  155.8920  139.6332  168.2004 O   0  0  0  0  0  0  0  0  0  0  0  0
  155.2070  140.0191  167.0197 C   0  0  0  0  0  0  0  0  0  0  0  0
  155.9399  139.4448  165.7976 C   0  0  1  0  0  0  0  0  0  0  0  0
  155.9038  137.9100  165.7810 C   0  0  0  0  0  0  0  0  0  0  0  0
  155.3280  139.9575  164.5745 N   0  0  0  0  0  0  0  0  0  0  0  0
  155.6197  139.5637  163.3239 C   0  0  0  0  0  0  0  0  0  0  0  0
  156.4700  138.7164  163.0512 O   0  0  0  0  0  0  0  0  0  0  0  0
  154.8760  140.2822  162.2366 C   0  0  0  0  0  0  0  0  0  0  0  0
  155.0795  139.9754  160.8725 C   0  0  0  0  0  0  0  0  0  0  0  0
  154.3658  140.6961  159.8962 C   0  0  0  0  0  0  0  0  0  0  0  0
  153.4717  141.7028  160.3141 C   0  0  0  0  0  0  0  0  0  0  0  0
  152.7530  142.4170  159.3457 N   0  0  0  0  0  0  0  0  0  0  0  0
  151.8200  141.6023  158.5797 C   0  0  0  0  0  0  0  0  0  0  0  0
  151.2231  142.4306  157.4282 C   0  0  1  0  0  0  0  0  0  0  0  0
  150.1567  141.6496  156.6531 C   0  0  0  0  0  0  0  0  0  0  0  0
  150.6136  143.6078  157.9600 O   0  0  0  0  0  0  0  0  0  0  0  0
  151.4844  144.4412  158.7305 C   0  0  2  0  0  0  0  0  0  0  0  0
  152.5058  145.1805  157.8484 C   0  0  0  0  0  0  0  0  0  0  0  0
  152.1321  143.6267  159.8683 C   0  0  0  0  0  0  0  0  0  0  0  0
  153.2815  142.0136  161.6185 N   0  0  0  0  0  0  0  0  0  0  0  0
  153.9734  141.3224  162.5494 C   0  0  0  0  0  0  0  0  0  0  0  0
  156.0359  140.0400  170.2120 H   0  0  0  0  0  0  0  0  0  0  0  0
  154.4165  140.2253  169.5380 H   0  0  0  0  0  0  0  0  0  0  0  0
  155.6656  141.4382  169.2024 H   0  0  0  0  0  0  0  0  0  0  0  0
  154.1858  139.6361  167.0533 H   0  0  0  0  0  0  0  0  0  0  0  0
  155.1462  141.1068  166.9531 H   0  0  0  0  0  0  0  0  0  0  0  0
  156.9847  139.7546  165.8593 H   0  0  0  0  0  0  0  0  0  0  0  0
  156.3740  137.4976  166.6741 H   0  0  0  0  0  0  0  0  0  0  0  0
  156.4381  137.5141  164.9167 H   0  0  0  0  0  0  0  0  0  0  0  0
  154.8800  137.5363  165.7408 H   0  0  0  0  0  0  0  0  0  0  0  0
  154.6342  140.6821  164.6878 H   0  0  0  0  0  0  0  0  0  0  0  0
  155.7716  139.2036  160.5681 H   0  0  0  0  0  0  0  0  0  0  0  0
  154.5015  140.4766  158.8472 H   0  0  0  0  0  0  0  0  0  0  0  0
  152.3354  140.7255  158.1853 H   0  0  0  0  0  0  0  0  0  0  0  0
  151.0232  141.2427  159.2327 H   0  0  0  0  0  0  0  0  0  0  0  0
  152.0120  142.7090  156.7290 H   0  0  0  0  0  0  0  0  0  0  0  0
  150.5747  140.7420  156.2168 H   0  0  0  0  0  0  0  0  0  0  0  0
  149.7483  142.2505  155.8402 H   0  0  0  0  0  0  0  0  0  0  0  0
  149.3293  141.3600  157.3018 H   0  0  0  0  0  0  0  0  0  0  0  0
  150.8516  145.2030  159.1861 H   0  0  0  0  0  0  0  0  0  0  0  0
  153.0645  145.9108  158.4344 H   0  0  0  0  0  0  0  0  0  0  0  0
  152.0053  145.7181  157.0428 H   0  0  0  0  0  0  0  0  0  0  0  0
  153.2318  144.5030  157.3993 H   0  0  0  0  0  0  0  0  0  0  0  0
  151.3689  143.3489  160.5970 H   0  0  0  0  0  0  0  0  0  0  0  0
  152.8705  144.2317  160.3963 H   0  0  0  0  0  0  0  0  0  0  0  0
  153.7893  141.6067  163.5754 H   0  0  0  0  0  0  0  0  0  0  0  0
  1  2  1  0  0  0  0
  1 23  1  0  0  0  0
  1 24  1  0  0  0  0
  1 25  1  0  0  0  0
  2  3  1  0  0  0  0
  3  4  1  0  0  0  0
  3 26  1  0  0  0  0
  3 27  1  0  0  0  0
  4  5  1  0  0  0  0
  4  6  1  0  0  0  0
  4 28  1  0  0  0  0
  5 29  1  0  0  0  0
  5 30  1  0  0  0  0
  5 31  1  0  0  0  0
  6  7  1  0  0  0  0
  6 32  1  0  0  0  0
  7  8  2  0  0  0  0
  7  9  1  0  0  0  0
  9 22  1  0  0  0  0
  9 10  2  0  0  0  0
 10 11  1  0  0  0  0
 10 33  1  0  0  0  0
 11 12  2  0  0  0  0
 11 34  1  0  0  0  0
 12 13  1  0  0  0  0
 12 21  1  0  0  0  0
 13 20  1  0  0  0  0
 13 14  1  0  0  0  0
 14 15  1  0  0  0  0
 14 35  1  0  0  0  0
 14 36  1  0  0  0  0
 15 16  1  0  0  0  0
 15 17  1  0  0  0  0
 15 37  1  0  0  0  0
 16 38  1  0  0  0  0
 16 39  1  0  0  0  0
 16 40  1  0  0  0  0
 17 18  1  0  0  0  0
 18 19  1  0  0  0  0
 18 20  1  0  0  0  0
 18 41  1  0  0  0  0
 19 42  1  0  0  0  0
 19 43  1  0  0  0  0
 19 44  1  0  0  0  0
 20 45  1  0  0  0  0
 20 46  1  0  0  0  0
 21 22  2  0  0  0  0
 22 47  1  0  0  0  0
M  END
> <s_m_source_file>
AV-unprocessed.smi

> <i_m_source_file_index>
2114

> <i_lp_mmshare_version>
43012

> <i_f3d_flags>
0

> <s_epik_input>
W0NIM11PW0NIMl1bQ0BIXShbQ0gzXSlbTkhdQyg9TyljMVtjSF1bY0hdYyhuW2NIXTEpTjJbQ0gyXVtDQEBIXShbQ0gzXSlPW0NAQEhdKFtDSDNdKVtDSDJdMg==

> <s_epik_cmdline>
J2VwaWtfcHl0aG9uJywgJy1waCcsICc3LjAnLCAnLXRuJywgJzgnLCAnLW1hJywgJzIwMCcsICctbWV0YWxfYmluZGluZycsICctaW1hZScsICc8aW5maWxlLm1hZT4nLCAnLW9tYWUnLCAnPG91dGZpbGUubWFlPic=

> <r_lp_tautomer_probability>
1

> <r_epik_Ionization_Penalty>
1.92915e-05

> <r_epik_Ionization_Penalty_Charging>
0

> <r_epik_Ionization_Penalty_Neutral>
1.92915e-05

> <r_epik_State_Penalty>
-0

> <r_epik_Charging_Adjusted_Penalty>
0

> <i_epik_Tot_Q>
0

> <i_epik_Tot_abs_Q>
0

> <r_epik_Metal_State_Penalty>
-0

> <b_epik_Metal_Only>
0

> <s_lp_Force_Field>
OPLS_2005

> <r_lp_Energy>
24.377

> <b_lp_Chiralities_Consistent>
1

> <s_lp_Variant>
AV-unprocessed.smi:2114-6

> <Gold.Version>
5.8.1

> <Gold.Id.Protein>
6NUR|6NUR_protein|mol2

> <Gold.PLP.Fitness>
40.5886

> <Gold.PLP.PLP>
-41.1330

> <Gold.PLP.part.hbond>
-1.0000

> <Gold.PLP.part.metal>
0.0000

> <Gold.PLP.part.buried>
-6.0191

> <Gold.PLP.part.nonpolar>
-35.7214

> <Gold.PLP.part.repulsive>
0.6474

> <Gold.PLP.ligand.clash>
0.0000

> <Gold.PLP.ligand.torsion>
0.3333

> <Gold.PLP.Chemscore.Hbond>
0.0000

> <Gold.PLP.Chemscore.CHOScore>
0.0000

> <Gold.PLP.Chemscore.Metal>
0.0000

> <Gold.PLP.Chemscore.Internal.Correction>
0.1223

> <Gold.Rescore>
     Score         DG    S(hbond)    S(metal)    S(lipo)     H(rot)  DE(clash)    DE(int)     intcor
     12.81     -14.11       0.00        0.00     107.06       1.52       0.36       0.94       ----

> <Gold.Chemscore.Fitness>
12.8081

> <Gold.Chemscore.DG>
-14.1076

> <Gold.Chemscore.ZeroCoef>
-5.4800

> <Gold.Chemscore.Hbond>
0.0000

> <Gold.Chemscore.Metal>
0.0000

> <Gold.Chemscore.Lipo>
107.0562

> <Gold.Chemscore.Internal_Hbond>
0.0000

> <Gold.Chemscore.DEClash>
0.3624

> <Gold.Chemscore.DEInternal>
0.9372

> <Gold.Chemscore.Rot>
1.5226

> <Gold.Chemscore.Internal.Correction>
   9.000000E+99

> <Gold.Chemscore.Hbond.Weighted>
-0.0000

> <Gold.Chemscore.Metal.Weighted>
-0.0000

> <Gold.Chemscore.Lipo.Weighted>
-12.5256

> <Gold.Chemscore.Internal_Hbond.Weighted>
0.0000

> <Gold.Chemscore.DEClash.Weighted>
0.3624

> <Gold.Chemscore.DEInternal.Weighted>
0.9372

> <Gold.Chemscore.Rot.Weighted>
3.8980

> <Gold.Chemscore.Internal.Correction.Weighted>
   9.000000E+99

> <Gold.Protein.RotatedTorsions>
[ 6907 6896 6895 6894 ] final   11.18 input  -60.11 | X-H torsion
[ 7974 7965 7964 7962 ] final   96.99 input  175.53 | X-H torsion
[ 8008 7997 7996 7995 ] final   54.13 input   59.86 | X-H torsion
[ 10167 10162 10161 10158 ] final   52.95 input  -65.29 | X-H torsion
[ 10718 10713 10712 10709 ] final -106.29 input   66.30 | X-H torsion
[ 10763 10752 10751 10750 ] final -140.34 input  -60.55 | X-H torsion
[ 11005 11000 10999 10996 ] final -118.31 input  -57.11 | X-H torsion

> <Gold.Protein.ActiveResidues>
 VAL166  LYS551  ARG553  GLY616  TRP617  ASP618  TYR619  PRO620  LYS621  CYS622 
 ASP623  PHE694  ASN695  SER759  ASP760  ASP761  ALA762  ILE779  LEU786  VAL792 
 PHE793  MET794  SER795  GLU796  ALA797  LYS798  CYS799  TRP800  GLU811  SER814 

> <Gold.Protein.RotatedAtoms>
  151.7501  135.0834  160.0329 H   0  0  0  0  0  0  0  0  0  0  0  0  # atno 6907 bound_to 6896
  152.3422  133.6076  159.5893 H   0  0  0  0  0  0  0  0  0  0  0  0  # atno 6908 bound_to 6896
  150.7486  133.9620  159.3560 H   0  0  0  0  0  0  0  0  0  0  0  0  # atno 6909 bound_to 6896
  145.4315  139.2310  143.3142 H   0  0  0  0  0  0  0  0  0  0  0  0  # atno 7974 bound_to 7965
  155.4797  140.3468  155.4338 H   0  0  0  0  0  0  0  0  0  0  0  0  # atno 8008 bound_to 7997
  156.1047  140.1445  156.9449 H   0  0  0  0  0  0  0  0  0  0  0  0  # atno 8009 bound_to 7997
  154.4716  140.0899  156.7138 H   0  0  0  0  0  0  0  0  0  0  0  0  # atno 8010 bound_to 7997
  140.2459  144.3532  150.6364 H   0  0  0  0  0  0  0  0  0  0  0  0  # atno 10167 bound_to 10162
  156.0383  130.5606  150.7660 H   0  0  0  0  0  0  0  0  0  0  0  0  # atno 10718 bound_to 10713
  154.8581  135.3556  154.5691 H   0  0  0  0  0  0  0  0  0  0  0  0  # atno 10763 bound_to 10752
  153.6305  135.7002  153.5282 H   0  0  0  0  0  0  0  0  0  0  0  0  # atno 10764 bound_to 10752
  153.3054  135.4194  155.1248 H   0  0  0  0  0  0  0  0  0  0  0  0  # atno 10765 bound_to 10752
  141.0295  134.0003  157.3165 H   0  0  0  0  0  0  0  0  0  0  0  0  # atno 11005 bound_to 11000
  146.2605  140.5052  142.8855 LP  0  0  0  0  0  0  0  0  0  0  0  0  # atno 17320 bound_to 7965
  144.8180  140.6501  143.6372 LP  0  0  0  0  0  0  0  0  0  0  0  0  # atno 17321 bound_to 7965
  140.6078  143.2168  151.6947 LP  0  0  0  0  0  0  0  0  0  0  0  0  # atno 17342 bound_to 10162
  139.5062  144.3691  152.0488 LP  0  0  0  0  0  0  0  0  0  0  0  0  # atno 17343 bound_to 10162
  157.5167  131.0929  151.0131 LP  0  0  0  0  0  0  0  0  0  0  0  0  # atno 17370 bound_to 10713
  157.0472  130.5772  149.5365 LP  0  0  0  0  0  0  0  0  0  0  0  0  # atno 17371 bound_to 10713
  139.9198  135.0200  156.8021 LP  0  0  0  0  0  0  0  0  0  0  0  0  # atno 17394 bound_to 11000
  140.6432  133.9799  155.7718 LP  0  0  0  0  0  0  0  0  0  0  0  0  # atno 17395 bound_to 11000

$$$$
