AV-unprocessed.smi:2244|AV-procd|sdf|9073|dock3
  -GOLD-   2272012273D 1   1.00000     0.00000
 Structure written by MMmdl.
 49 51  0  0  0  0  0  0  0  0  1 V2000
  147.6873  127.9846  155.3281 C   0  0  0  0  0  0  0  0  0  0  0  0
  148.7089  128.5713  154.3281 C   0  0  0  0  0  0  0  0  0  0  0  0
  150.1098  128.0875  154.7570 C   0  0  0  0  0  0  0  0  0  0  0  0
  148.3645  128.0100  152.9327 C   0  0  0  0  0  0  0  0  0  0  0  0
  148.6792  130.1097  154.2922 C   0  0  0  0  0  0  0  0  0  0  0  0
  147.5570  130.8530  153.8626 C   0  0  0  0  0  0  0  0  0  0  0  0
  147.6547  132.2546  153.8798 C   0  0  0  0  0  0  0  0  0  0  0  0
  148.8575  132.8430  154.3201 C   0  0  0  0  0  0  0  0  0  0  0  0
  148.8666  134.2688  154.3052 N   0  0  0  0  0  0  0  0  0  0  0  0
  149.6057  135.1664  154.9921 C   0  0  0  0  0  0  0  0  0  0  0  0
  150.4540  134.7990  155.8034 O   0  0  0  0  0  0  0  0  0  0  0  0
  149.3590  136.4617  154.7365 N   0  0  0  0  0  0  0  0  0  0  0  0
  150.0340  137.5959  155.3581 C   0  0  1  0  0  0  0  0  0  0  0  0
  151.4159  137.8250  154.7242 C   0  0  0  0  0  0  0  0  0  0  0  0
  152.0497  139.1184  155.2599 C   0  0  0  0  0  0  0  0  0  0  0  0
  151.1780  140.2202  155.0303 O   0  0  0  0  0  0  0  0  0  0  0  0
  149.9318  140.1008  155.7100 C   0  0  1  0  0  0  0  0  0  0  0  0
  149.1447  141.3754  155.4780 C   0  0  0  0  0  0  0  0  0  0  0  0
  147.7836  141.5693  156.1041 C   0  0  0  0  0  0  0  0  0  0  0  0
  147.9061  141.3711  154.6127 C   0  0  0  0  0  0  0  0  0  0  0  0
  149.1808  138.8615  155.1889 C   0  0  0  0  0  0  0  0  0  0  0  0
  149.8952  132.0637  154.7187 N   0  0  0  0  0  0  0  0  0  0  0  0
  149.8100  130.7307  154.7067 N   0  0  0  0  0  0  0  0  0  0  0  0
  147.7224  126.8946  155.3345 H   0  0  0  0  0  0  0  0  0  0  0  0
  146.6656  128.2685  155.0731 H   0  0  0  0  0  0  0  0  0  0  0  0
  147.8855  128.3150  156.3484 H   0  0  0  0  0  0  0  0  0  0  0  0
  150.3778  128.4744  155.7409 H   0  0  0  0  0  0  0  0  0  0  0  0
  150.8816  128.4092  154.0570 H   0  0  0  0  0  0  0  0  0  0  0  0
  150.1568  126.9992  154.8079 H   0  0  0  0  0  0  0  0  0  0  0  0
  148.3582  126.9194  152.9331 H   0  0  0  0  0  0  0  0  0  0  0  0
  149.0866  128.3254  152.1787 H   0  0  0  0  0  0  0  0  0  0  0  0
  147.3799  128.3445  152.6043 H   0  0  0  0  0  0  0  0  0  0  0  0
  146.6416  130.3900  153.5286 H   0  0  0  0  0  0  0  0  0  0  0  0
  146.8199  132.8617  153.5606 H   0  0  0  0  0  0  0  0  0  0  0  0
  148.1976  134.6809  153.6714 H   0  0  0  0  0  0  0  0  0  0  0  0
  148.6456  136.6769  154.0540 H   0  0  0  0  0  0  0  0  0  0  0  0
  150.1563  137.4050  156.4260 H   0  0  0  0  0  0  0  0  0  0  0  0
  152.0731  136.9782  154.9238 H   0  0  0  0  0  0  0  0  0  0  0  0
  151.3191  137.8965  153.6398 H   0  0  0  0  0  0  0  0  0  0  0  0
  152.2708  139.0312  156.3246 H   0  0  0  0  0  0  0  0  0  0  0  0
  152.9964  139.3079  154.7539 H   0  0  0  0  0  0  0  0  0  0  0  0
  150.1158  139.9966  156.7811 H   0  0  0  0  0  0  0  0  0  0  0  0
  149.7658  142.2665  155.4099 H   0  0  0  0  0  0  0  0  0  0  0  0
  147.3720  140.7484  156.6876 H   0  0  0  0  0  0  0  0  0  0  0  0
  147.5340  142.5663  156.4613 H   0  0  0  0  0  0  0  0  0  0  0  0
  147.7372  142.2355  153.9741 H   0  0  0  0  0  0  0  0  0  0  0  0
  147.5762  140.4181  154.2042 H   0  0  0  0  0  0  0  0  0  0  0  0
  148.9352  139.0035  154.1351 H   0  0  0  0  0  0  0  0  0  0  0  0
  148.2333  138.7483  155.7174 H   0  0  0  0  0  0  0  0  0  0  0  0
  1  2  1  0  0  0  0
  1 24  1  0  0  0  0
  1 25  1  0  0  0  0
  1 26  1  0  0  0  0
  2  3  1  0  0  0  0
  2  4  1  0  0  0  0
  2  5  1  0  0  0  0
  3 27  1  0  0  0  0
  3 28  1  0  0  0  0
  3 29  1  0  0  0  0
  4 30  1  0  0  0  0
  4 31  1  0  0  0  0
  4 32  1  0  0  0  0
  5 23  1  0  0  0  0
  5  6  2  0  0  0  0
  6  7  1  0  0  0  0
  6 33  1  0  0  0  0
  7  8  2  0  0  0  0
  7 34  1  0  0  0  0
  8  9  1  0  0  0  0
  8 22  1  0  0  0  0
  9 10  1  0  0  0  0
  9 35  1  0  0  0  0
 10 11  2  0  0  0  0
 10 12  1  0  0  0  0
 12 13  1  0  0  0  0
 12 36  1  0  0  0  0
 13 21  1  0  0  0  0
 13 14  1  0  0  0  0
 13 37  1  0  0  0  0
 14 15  1  0  0  0  0
 14 38  1  0  0  0  0
 14 39  1  0  0  0  0
 15 16  1  0  0  0  0
 15 40  1  0  0  0  0
 15 41  1  0  0  0  0
 16 17  1  0  0  0  0
 17 18  1  0  0  0  0
 17 21  1  0  0  0  0
 17 42  1  0  0  0  0
 18 20  1  0  0  0  0
 18 19  1  0  0  0  0
 18 43  1  0  0  0  0
 19 20  1  0  0  0  0
 19 44  1  0  0  0  0
 19 45  1  0  0  0  0
 20 46  1  0  0  0  0
 20 47  1  0  0  0  0
 21 48  1  0  0  0  0
 21 49  1  0  0  0  0
 22 23  2  0  0  0  0
M  END
> <s_m_source_file>
AV-unprocessed.smi

> <i_m_source_file_index>
2244

> <i_lp_mmshare_version>
43012

> <i_f3d_flags>
0

> <s_epik_input>
W0NIM11DKFtDSDNdKShbQ0gzXSljMVtjSF1bY0hdYyhubjEpW05IXUMoPU8pW05IXVtDQEBIXTJbQ0gyXVtDSDJdT1tDQEhdKFtDSDJdMilbQ0hdM1tDSDJdW0NIMl0z

> <s_epik_cmdline>
J2VwaWtfcHl0aG9uJywgJy1waCcsICc3LjAnLCAnLXRuJywgJzgnLCAnLW1hJywgJzIwMCcsICctbWV0YWxfYmluZGluZycsICctaW1hZScsICc8aW5maWxlLm1hZT4nLCAnLW9tYWUnLCAnPG91dGZpbGUubWFlPic=

> <r_lp_tautomer_probability>
1

> <r_epik_Ionization_Penalty>
0.011369

> <r_epik_Ionization_Penalty_Charging>
0

> <r_epik_Ionization_Penalty_Neutral>
0.011369

> <r_epik_State_Penalty>
0.00456331

> <r_epik_Charging_Adjusted_Penalty>
0.00456331

> <i_epik_Tot_Q>
0

> <i_epik_Tot_abs_Q>
0

> <r_epik_Metal_State_Penalty>
-0

> <b_epik_Metal_Only>
0

> <s_lp_Force_Field>
OPLS_2005

> <r_lp_Energy>
27.405

> <b_lp_Chiralities_Consistent>
1

> <s_lp_Variant>
AV-unprocessed.smi:2244-2

> <Gold.Version>
5.8.1

> <Gold.Id.Protein>
6NUR|6NUR_protein|mol2

> <Gold.PLP.Fitness>
44.5791

> <Gold.PLP.PLP>
-38.2628

> <Gold.PLP.part.hbond>
-3.0088

> <Gold.PLP.part.metal>
0.0000

> <Gold.PLP.part.buried>
-1.1664

> <Gold.PLP.part.nonpolar>
-33.2975

> <Gold.PLP.part.repulsive>
0.2208

> <Gold.PLP.ligand.clash>
0.0000

> <Gold.PLP.ligand.torsion>
1.1295

> <Gold.PLP.Chemscore.Hbond>
2.4978

> <Gold.PLP.Chemscore.CHOScore>
0.0000

> <Gold.PLP.Chemscore.Metal>
0.0000

> <Gold.Chemscore.Hbonds>
donor molecule, donor type, donor heavy atom, donor atom, acceptor molecule, acceptor atom, score
      L1  H    12    36       P1  7948  0.18
      P1  H  7989  7998       L1    16  1.00

> <Gold.PLP.Chemscore.Internal.Correction>
1.0818

> <Gold.Rescore>
     Score         DG    S(hbond)    S(metal)    S(lipo)     H(rot)  DE(clash)    DE(int)     intcor
     14.49     -17.74       1.85        0.00      80.37       1.30       0.16       3.10       ----

> <Gold.Chemscore.Fitness>
14.4859

> <Gold.Chemscore.DG>
-17.7424

> <Gold.Chemscore.ZeroCoef>
-5.4800

> <Gold.Chemscore.Hbond>
1.8524

> <Gold.Chemscore.Metal>
0.0000

> <Gold.Chemscore.Lipo>
80.3745

> <Gold.Chemscore.Internal_Hbond>
0.0000

> <Gold.Chemscore.DEClash>
0.1557

> <Gold.Chemscore.DEInternal>
3.1008

> <Gold.Chemscore.Rot>
1.3002

> <Gold.Chemscore.Internal.Correction>
   9.000000E+99

> <Gold.Chemscore.Hbonds>
donor molecule, donor type, donor heavy atom, donor atom, acceptor molecule, acceptor atom, score
      L1  H     9    35       P1  7948  0.01
      L1  H    12    36       P1  7948  0.18
      P1  H  7989  7998       L1    16  0.55

> <Gold.Chemscore.Hbond.Weighted>
-6.1870

> <Gold.Chemscore.Metal.Weighted>
-0.0000

> <Gold.Chemscore.Lipo.Weighted>
-9.4038

> <Gold.Chemscore.Internal_Hbond.Weighted>
0.0000

> <Gold.Chemscore.DEClash.Weighted>
0.1557

> <Gold.Chemscore.DEInternal.Weighted>
3.1008

> <Gold.Chemscore.Rot.Weighted>
3.3284

> <Gold.Chemscore.Internal.Correction.Weighted>
   9.000000E+99

> <Gold.Protein.RotatedTorsions>
[ 6907 6896 6895 6894 ] final  -19.92 input  -60.11 | X-H torsion
[ 7974 7965 7964 7962 ] final  -12.27 input  175.53 | X-H torsion
[ 8008 7997 7996 7995 ] final -110.08 input   59.86 | X-H torsion
[ 10167 10162 10161 10158 ] final  163.43 input  -65.29 | X-H torsion
[ 10718 10713 10712 10709 ] final   50.12 input   66.30 | X-H torsion
[ 10763 10752 10751 10750 ] final  -18.12 input  -60.55 | X-H torsion
[ 11005 11000 10999 10996 ] final  -13.84 input  -57.11 | X-H torsion

> <Gold.Protein.ActiveResidues>
 VAL166  LYS551  ARG553  GLY616  TRP617  ASP618  TYR619  PRO620  LYS621  CYS622 
 ASP623  PHE694  ASN695  SER759  ASP760  ASP761  ALA762  ILE779  LEU786  VAL792 
 PHE793  MET794  SER795  GLU796  ALA797  LYS798  CYS799  TRP800  GLU811  SER814 

> <Gold.Protein.RotatedAtoms>
  151.2559  135.0638  159.9079 H   0  0  0  0  0  0  0  0  0  0  0  0  # atno 6907 bound_to 6896
  152.5373  134.0282  159.8023 H   0  0  0  0  0  0  0  0  0  0  0  0  # atno 6908 bound_to 6896
  151.0497  133.5585  159.2674 H   0  0  0  0  0  0  0  0  0  0  0  0  # atno 6909 bound_to 6896
  146.2158  140.3034  142.8377 H   0  0  0  0  0  0  0  0  0  0  0  0  # atno 7974 bound_to 7965
  154.9690  140.0398  157.2225 H   0  0  0  0  0  0  0  0  0  0  0  0  # atno 8008 bound_to 7997
  154.7818  140.2820  155.6035 H   0  0  0  0  0  0  0  0  0  0  0  0  # atno 8009 bound_to 7997
  156.2937  140.2590  156.2646 H   0  0  0  0  0  0  0  0  0  0  0  0  # atno 8010 bound_to 7997
  139.4874  144.4337  151.9038 H   0  0  0  0  0  0  0  0  0  0  0  0  # atno 10167 bound_to 10162
  157.4854  130.8341  149.8140 H   0  0  0  0  0  0  0  0  0  0  0  0  # atno 10718 bound_to 10713
  153.5843  135.7004  153.5450 H   0  0  0  0  0  0  0  0  0  0  0  0  # atno 10763 bound_to 10752
  153.3233  135.4068  155.1435 H   0  0  0  0  0  0  0  0  0  0  0  0  # atno 10764 bound_to 10752
  154.8612  135.3701  154.5372 H   0  0  0  0  0  0  0  0  0  0  0  0  # atno 10765 bound_to 10752
  140.7802  133.8369  155.9285 H   0  0  0  0  0  0  0  0  0  0  0  0  # atno 11005 bound_to 11000
  144.9041  140.7678  143.5848 LP  0  0  0  0  0  0  0  0  0  0  0  0  # atno 17320 bound_to 7965
  145.2961  139.1866  143.4714 LP  0  0  0  0  0  0  0  0  0  0  0  0  # atno 17321 bound_to 7965
  140.3786  144.2765  150.5911 LP  0  0  0  0  0  0  0  0  0  0  0  0  # atno 17342 bound_to 10162
  140.5254  143.2256  151.8323 LP  0  0  0  0  0  0  0  0  0  0  0  0  # atno 17343 bound_to 10162
  156.0144  130.3820  150.2159 LP  0  0  0  0  0  0  0  0  0  0  0  0  # atno 17370 bound_to 10713
  157.0347  131.0017  151.3302 LP  0  0  0  0  0  0  0  0  0  0  0  0  # atno 17371 bound_to 10713
  140.9490  134.1804  157.4742 LP  0  0  0  0  0  0  0  0  0  0  0  0  # atno 17394 bound_to 11000
  139.8743  134.9901  156.5489 LP  0  0  0  0  0  0  0  0  0  0  0  0  # atno 17395 bound_to 11000

$$$$
