AV-unprocessed.smi:1|AV-procd|sdf|15|dock9
  -GOLD-   2262015113D 1   1.00000     0.00000
 Structure written by MMmdl.
 57 62  0  0  0  0  0  0  0  0  1 V2000
  151.0503  142.3126  155.9027 O   0  0  0  0  0  0  0  0  0  0  0  0
  151.3426  141.7665  156.9700 C   0  0  0  0  0  0  0  0  0  0  0  0
  151.3026  140.4178  157.2981 N   0  0  0  0  0  0  0  0  0  0  0  0
  151.0070  139.5350  156.3931 C   0  0  0  0  0  0  0  0  0  0  0  0
  150.6973  139.6419  155.0310 N   0  0  0  0  0  0  0  0  0  0  0  0
  150.4078  138.5745  154.1668 C   0  0  0  0  0  0  0  0  0  0  0  0
  150.3834  137.3163  154.5165 N   0  0  0  0  0  0  0  0  0  0  0  0
  150.6810  137.1543  155.8630 C   0  0  0  0  0  0  0  0  0  0  0  0
  150.9797  138.1151  156.8050 C   0  0  0  0  0  0  0  0  0  0  0  0
  151.2184  137.5348  158.0467 N   0  0  0  0  0  0  0  0  0  0  0  0
  151.0552  136.2380  157.7981 C   0  0  0  0  0  0  0  0  0  0  0  0
  150.7345  135.9312  156.5278 N   0  0  0  0  0  0  0  0  0  0  0  0
  150.5073  134.5634  155.9777 C   0  0  2  0  0  0  0  0  0  0  0  0
  149.8075  134.6732  154.7803 O   0  0  0  0  0  0  0  0  0  0  0  0
  148.9295  133.5608  154.6169 C   0  0  2  0  0  0  0  0  0  0  0  0
  147.5303  134.1075  154.3078 C   0  0  0  0  0  0  0  0  0  0  0  0
  147.3136  134.0841  152.9066 O   0  0  0  0  0  0  0  0  0  0  0  0
  146.3040  134.7951  152.3684 C   0  0  0  0  0  0  0  0  0  0  0  0
  145.8776  135.8468  152.8504 O   0  0  0  0  0  0  0  0  0  0  0  0
  145.7589  134.1782  151.1245 C   0  0  0  0  0  0  0  0  0  0  0  0
  144.6576  134.7838  150.4755 C   0  0  0  0  0  0  0  0  0  0  0  0
  144.1239  134.2266  149.2973 C   0  0  0  0  0  0  0  0  0  0  0  0
  144.6842  133.0558  148.7541 C   0  0  0  0  0  0  0  0  0  0  0  0
  145.7788  132.4427  149.3912 C   0  0  0  0  0  0  0  0  0  0  0  0
  146.3143  132.9990  150.5692 C   0  0  0  0  0  0  0  0  0  0  0  0
  148.9917  132.7602  155.9257 C   0  0  1  0  0  0  0  0  0  0  0  0
  149.8362  131.6325  155.7678 O   0  0  0  0  0  0  0  0  0  0  0  0
  150.7961  131.4945  157.1282 S   0  0  0  0  0  0  0  0  0  0  0  0
  150.2292  130.4454  157.9892 O   0  0  0  0  0  0  0  0  0  0  0  0
  152.2035  131.4945  156.7006 O   0  0  0  0  0  0  0  0  0  0  0  0
  150.4561  132.9778  157.8194 O   0  0  0  0  0  0  0  0  0  0  0  0
  149.6514  133.7189  156.9193 C   0  0  1  0  0  0  0  0  0  0  0  0
  151.8270  142.6299  158.0886 C   0  0  0  0  0  0  0  0  0  0  0  0
  152.0005  144.0157  157.8877 C   0  0  0  0  0  0  0  0  0  0  0  0
  152.4680  144.8286  158.9389 C   0  0  0  0  0  0  0  0  0  0  0  0
  152.7648  144.2585  160.1920 C   0  0  0  0  0  0  0  0  0  0  0  0
  152.5942  142.8751  160.3946 C   0  0  0  0  0  0  0  0  0  0  0  0
  152.1271  142.0609  159.3443 C   0  0  0  0  0  0  0  0  0  0  0  0
  150.1959  138.8792  153.1409 H   0  0  0  0  0  0  0  0  0  0  0  0
  151.1735  135.4867  158.5651 H   0  0  0  0  0  0  0  0  0  0  0  0
  151.4980  134.1458  155.7915 H   0  0  0  0  0  0  0  0  0  0  0  0
  149.2815  132.9590  153.7776 H   0  0  0  0  0  0  0  0  0  0  0  0
  146.7677  133.5224  154.8239 H   0  0  0  0  0  0  0  0  0  0  0  0
  147.4500  135.1362  154.6619 H   0  0  0  0  0  0  0  0  0  0  0  0
  144.2114  135.6839  150.8733 H   0  0  0  0  0  0  0  0  0  0  0  0
  143.2840  134.6989  148.8095 H   0  0  0  0  0  0  0  0  0  0  0  0
  144.2745  132.6289  147.8505 H   0  0  0  0  0  0  0  0  0  0  0  0
  146.2097  131.5438  148.9755 H   0  0  0  0  0  0  0  0  0  0  0  0
  147.1542  132.5026  151.0331 H   0  0  0  0  0  0  0  0  0  0  0  0
  148.0140  132.4194  156.2690 H   0  0  0  0  0  0  0  0  0  0  0  0
  148.9092  134.3323  157.4308 H   0  0  0  0  0  0  0  0  0  0  0  0
  151.7765  144.4600  156.9285 H   0  0  0  0  0  0  0  0  0  0  0  0
  152.6008  145.8889  158.7833 H   0  0  0  0  0  0  0  0  0  0  0  0
  153.1243  144.8819  160.9974 H   0  0  0  0  0  0  0  0  0  0  0  0
  152.8225  142.4383  161.3555 H   0  0  0  0  0  0  0  0  0  0  0  0
  152.0019  141.0000  159.5061 H   0  0  0  0  0  0  0  0  0  0  0  0
  150.6852  140.5715  154.6357 H   0  0  0  0  0  0  0  0  0  0  0  0
  1  2  2  0  0  0  0
  2  3  1  0  0  0  0
  2 33  1  0  0  0  0
  3  4  2  0  0  0  0
  4  9  1  0  0  0  0
  4  5  1  0  0  0  0
  5  6  1  0  0  0  0
  5 57  1  0  0  0  0
  6  7  2  0  0  0  0
  6 39  1  0  0  0  0
  7  8  1  0  0  0  0
  8 12  1  0  0  0  0
  8  9  2  0  0  0  0
  9 10  1  0  0  0  0
 10 11  2  0  0  0  0
 11 12  1  0  0  0  0
 11 40  1  0  0  0  0
 12 13  1  0  0  0  0
 13 32  1  0  0  0  0
 13 14  1  0  0  0  0
 13 41  1  0  0  0  0
 14 15  1  0  0  0  0
 15 16  1  0  0  0  0
 15 26  1  0  0  0  0
 15 42  1  0  0  0  0
 16 17  1  0  0  0  0
 16 43  1  0  0  0  0
 16 44  1  0  0  0  0
 17 18  1  0  0  0  0
 18 19  2  0  0  0  0
 18 20  1  0  0  0  0
 20 25  1  0  0  0  0
 20 21  2  0  0  0  0
 21 22  1  0  0  0  0
 21 45  1  0  0  0  0
 22 23  2  0  0  0  0
 22 46  1  0  0  0  0
 23 24  1  0  0  0  0
 23 47  1  0  0  0  0
 24 25  2  0  0  0  0
 24 48  1  0  0  0  0
 25 49  1  0  0  0  0
 26 32  1  0  0  0  0
 26 27  1  0  0  0  0
 26 50  1  0  0  0  0
 27 28  1  0  0  0  0
 28 29  2  0  0  0  0
 28 30  2  0  0  0  0
 28 31  1  0  0  0  0
 31 32  1  0  0  0  0
 32 51  1  0  0  0  0
 33 38  1  0  0  0  0
 33 34  2  0  0  0  0
 34 35  1  0  0  0  0
 34 52  1  0  0  0  0
 35 36  2  0  0  0  0
 35 53  1  0  0  0  0
 36 37  1  0  0  0  0
 36 54  1  0  0  0  0
 37 38  2  0  0  0  0
 37 55  1  0  0  0  0
 38 56  1  0  0  0  0
M  END
> <s_m_source_file>
AV-unprocessed.smi

> <i_m_source_file_index>
1

> <i_lp_mmshare_version>
43012

> <i_f3d_flags>
0

> <s_epik_input>
W2NIXTFbY0hdW2NIXVtjSF1bY0hdYzFDKD1PKVtOSF1jKG5bY0hdbjIpYyhjMjMpbltjSF1uM1tDQEBIXShbQ0BIXShbQ0BIXTQ1KU9TKE81KSg9Tyk9TylPW0NASF00W0NIMl1PQyg9TyljNltjSF1bY0hdW2NIXVtjSF1bY0hdNg==

> <s_epik_cmdline>
J2VwaWtfcHl0aG9uJywgJy1waCcsICc3LjAnLCAnLXRuJywgJzgnLCAnLW1hJywgJzIwMCcsICctbWV0YWxfYmluZGluZycsICctaW1hZScsICc8aW5maWxlLm1hZT4nLCAnLW9tYWUnLCAnPG91dGZpbGUubWFlPic=

> <r_epik_Ionization_Penalty>
0.122545

> <r_epik_Ionization_Penalty_Charging>
0.122545

> <r_epik_Ionization_Penalty_Neutral>
7.8935e-16

> <r_epik_State_Penalty>
2.69178

> <r_epik_Charging_Adjusted_Penalty>
2.81433

> <i_epik_Tot_Q>
0

> <i_epik_Tot_abs_Q>
0

> <r_epik_Metal_State_Penalty>
3.02665

> <b_epik_Metal_Only>
0

> <s_epik_Chemistry_Notes>
This compound has an ester and may undergo hydrolysis at high or low pH. This compound contains an acetal/aminal-like group ( X-CH(R)-Y where X, Y are N, S, or O) that may be acid/base labile, releasing an aldehyde.

> <s_lp_Force_Field>
OPLS_2005

> <r_lp_Energy>
60.8199

> <b_lp_Chiralities_Consistent>
1

> <s_lp_Variant>
AV-unprocessed.smi:1-15

> <Gold.Version>
5.8.1

> <Gold.Id.Protein>
6NUR|6NUR_protein|mol2

> <Gold.PLP.Fitness>
55.3667

> <Gold.PLP.PLP>
-54.8398

> <Gold.PLP.part.hbond>
-1.0000

> <Gold.PLP.part.metal>
0.0000

> <Gold.PLP.part.buried>
-2.1670

> <Gold.PLP.part.nonpolar>
-52.5580

> <Gold.PLP.part.repulsive>
1.7172

> <Gold.PLP.ligand.clash>
0.0000

> <Gold.PLP.ligand.torsion>
1.4182

> <Gold.PLP.Chemscore.Hbond>
0.0000

> <Gold.PLP.Chemscore.CHOScore>
1.0699

> <Gold.PLP.Chemscore.Metal>
0.0000

> <Gold.Chemscore.Hbonds>
donor molecule, donor type, donor heavy atom, donor atom, acceptor molecule, acceptor atom, score
      L1  C     6    39       P1  7957  1.00

> <Gold.PLP.Chemscore.Internal.Correction>
0.1536

> <Gold.Rescore>
     Score         DG    S(hbond)    S(metal)    S(lipo)     H(rot)  DE(clash)    DE(int)     intcor
     11.28     -16.62       0.00        0.00     141.92       2.13       2.34       3.00       ----

> <Gold.Chemscore.Fitness>
11.2845

> <Gold.Chemscore.DG>
-16.6230

> <Gold.Chemscore.ZeroCoef>
-5.4800

> <Gold.Chemscore.Hbond>
0.0000

> <Gold.Chemscore.Metal>
0.0000

> <Gold.Chemscore.Lipo>
141.9174

> <Gold.Chemscore.Internal_Hbond>
0.0000

> <Gold.Chemscore.DEClash>
2.3358

> <Gold.Chemscore.DEInternal>
3.0027

> <Gold.Chemscore.Rot>
2.1333

> <Gold.Chemscore.Internal.Correction>
   9.000000E+99

> <Gold.Chemscore.Hbond.Weighted>
-0.0000

> <Gold.Chemscore.Metal.Weighted>
-0.0000

> <Gold.Chemscore.Lipo.Weighted>
-16.6043

> <Gold.Chemscore.Internal_Hbond.Weighted>
0.0000

> <Gold.Chemscore.DEClash.Weighted>
2.3358

> <Gold.Chemscore.DEInternal.Weighted>
3.0027

> <Gold.Chemscore.Rot.Weighted>
5.4614

> <Gold.Chemscore.Internal.Correction.Weighted>
   9.000000E+99

> <Gold.Protein.RotatedTorsions>
[ 6907 6896 6895 6894 ] final -132.91 input  -60.11 | X-H torsion
[ 7974 7965 7964 7962 ] final -147.98 input  175.53 | X-H torsion
[ 8008 7997 7996 7995 ] final  -78.62 input   59.86 | X-H torsion
[ 10167 10162 10161 10158 ] final   78.24 input  -65.29 | X-H torsion
[ 10718 10713 10712 10709 ] final  -34.57 input   66.30 | X-H torsion
[ 10763 10752 10751 10750 ] final   13.43 input  -60.55 | X-H torsion
[ 11005 11000 10999 10996 ] final -103.34 input  -57.11 | X-H torsion

> <Gold.Protein.ActiveResidues>
 VAL166  LYS551  ARG553  GLY616  TRP617  ASP618  TYR619  PRO620  LYS621  CYS622 
 ASP623  PHE694  ASN695  SER759  ASP760  ASP761  ALA762  ILE779  LEU786  VAL792 
 PHE793  MET794  SER795  GLU796  ALA797  LYS798  CYS799  TRP800  GLU811  SER814 

> <Gold.Protein.RotatedAtoms>
  150.9679  133.6375  159.2742 H   0  0  0  0  0  0  0  0  0  0  0  0  # atno 6907 bound_to 6896
  151.3675  135.0915  159.9464 H   0  0  0  0  0  0  0  0  0  0  0  0  # atno 6908 bound_to 6896
  152.5172  133.9240  159.7603 H   0  0  0  0  0  0  0  0  0  0  0  0  # atno 6909 bound_to 6896
  144.8059  140.5257  143.5675 H   0  0  0  0  0  0  0  0  0  0  0  0  # atno 7974 bound_to 7965
  154.5707  140.0691  156.8960 H   0  0  0  0  0  0  0  0  0  0  0  0  # atno 8008 bound_to 7997
  155.2640  140.3360  155.4252 H   0  0  0  0  0  0  0  0  0  0  0  0  # atno 8009 bound_to 7997
  156.2116  140.1761  156.7668 H   0  0  0  0  0  0  0  0  0  0  0  0  # atno 8010 bound_to 7997
  139.9731  144.5880  150.7968 H   0  0  0  0  0  0  0  0  0  0  0  0  # atno 10167 bound_to 10162
  156.3490  130.4305  149.7721 H   0  0  0  0  0  0  0  0  0  0  0  0  # atno 10718 bound_to 10713
  153.1722  135.6814  153.8593 H   0  0  0  0  0  0  0  0  0  0  0  0  # atno 10763 bound_to 10752
  153.7953  135.3163  155.3384 H   0  0  0  0  0  0  0  0  0  0  0  0  # atno 10764 bound_to 10752
  154.8005  135.4781  154.0357 H   0  0  0  0  0  0  0  0  0  0  0  0  # atno 10765 bound_to 10752
  141.1150  133.8632  157.1473 H   0  0  0  0  0  0  0  0  0  0  0  0  # atno 11005 bound_to 11000
  145.5440  139.1475  143.3431 LP  0  0  0  0  0  0  0  0  0  0  0  0  # atno 17320 bound_to 7965
  146.2350  140.5580  142.8959 LP  0  0  0  0  0  0  0  0  0  0  0  0  # atno 17321 bound_to 7965
  140.7515  143.2974  151.3169 LP  0  0  0  0  0  0  0  0  0  0  0  0  # atno 17342 bound_to 10162
  139.6466  144.0439  152.2595 LP  0  0  0  0  0  0  0  0  0  0  0  0  # atno 17343 bound_to 10162
  156.4929  130.8093  151.3102 LP  0  0  0  0  0  0  0  0  0  0  0  0  # atno 17370 bound_to 10713
  157.7458  130.9969  150.2799 LP  0  0  0  0  0  0  0  0  0  0  0  0  # atno 17371 bound_to 10713
  140.0067  135.0005  157.0307 LP  0  0  0  0  0  0  0  0  0  0  0  0  # atno 17394 bound_to 11000
  140.4670  134.1425  155.7198 LP  0  0  0  0  0  0  0  0  0  0  0  0  # atno 17395 bound_to 11000

$$$$
