AV-unprocessed.smi:712|AV-procd|sdf|3469|dock10
  -GOLD-   22720 0463D 1   1.00000     0.00000
 Structure written by MMmdl.
 51 52  0  0  0  0  0  0  0  0  2 V2000
  152.2017  144.3195  161.1046 C   0  0  0  0  0  0  0  0  0  0  0  0
  151.9232  143.3986  159.9348 C   0  0  0  0  0  0  0  0  0  0  0  0
  150.8465  143.6840  159.0091 C   0  0  0  0  0  0  0  0  0  0  0  0
  150.6237  142.8445  157.9858 C   0  0  0  0  0  0  0  0  0  0  0  0
  151.4060  141.6928  157.7860 N   0  0  0  0  0  0  0  0  0  0  0  0
  151.0627  140.8302  156.6434 C   0  0  0  0  0  0  0  0  0  0  0  0
  149.7019  140.1527  156.8389 C   0  0  0  0  0  0  0  0  0  0  0  0
  148.6883  140.8325  156.9997 O   0  0  0  0  0  0  0  0  0  0  0  0
  149.7016  138.8116  156.8457 N   0  0  0  0  0  0  0  0  0  0  0  0
  148.5558  137.9669  157.1651 C   0  0  0  0  0  0  0  0  0  0  0  0
  148.6906  136.5700  156.5268 C   0  0  1  0  0  0  0  0  0  0  0  0
  148.5366  136.5762  154.9853 C   0  0  0  0  0  0  0  0  0  0  0  0
  148.7785  135.2343  154.3975 N   0  3  2  0  0  0  0  0  0  0  0  0
  147.6337  134.2914  154.5184 C   0  0  0  0  0  0  0  0  0  0  0  0
  147.6344  133.2093  153.4163 C   0  0  0  0  0  0  0  0  0  0  0  0
  146.3401  132.3843  153.4651 C   0  0  0  0  0  0  0  0  0  0  0  0
  148.8624  132.2897  153.5163 C   0  0  0  0  0  0  0  0  0  0  0  0
  150.0691  134.6806  154.8737 C   0  0  0  0  0  0  0  0  0  0  0  0
  150.1612  134.7221  156.4088 C   0  0  0  0  0  0  0  0  0  0  0  0
  149.9784  136.0603  156.8555 O   0  0  0  0  0  0  0  0  0  0  0  0
  152.4362  141.3655  158.6247 C   0  0  0  0  0  0  0  0  0  0  0  0
  153.1190  140.3531  158.4615 O   0  0  0  0  0  0  0  0  0  0  0  0
  152.6711  142.2905  159.7388 C   0  0  0  0  0  0  0  0  0  0  0  0
  151.6891  145.2741  160.9824 H   0  0  0  0  0  0  0  0  0  0  0  0
  153.2705  144.5181  161.1916 H   0  0  0  0  0  0  0  0  0  0  0  0
  151.8592  143.8632  162.0338 H   0  0  0  0  0  0  0  0  0  0  0  0
  150.2255  144.5582  159.1388 H   0  0  0  0  0  0  0  0  0  0  0  0
  149.8331  142.9968  157.2655 H   0  0  0  0  0  0  0  0  0  0  0  0
  151.0293  141.4022  155.7153 H   0  0  0  0  0  0  0  0  0  0  0  0
  151.8439  140.0823  156.4937 H   0  0  0  0  0  0  0  0  0  0  0  0
  150.5809  138.3406  156.6873 H   0  0  0  0  0  0  0  0  0  0  0  0
  148.4045  137.8909  158.2432 H   0  0  0  0  0  0  0  0  0  0  0  0
  147.6705  138.4627  156.7666 H   0  0  0  0  0  0  0  0  0  0  0  0
  147.9384  135.9216  156.9788 H   0  0  0  0  0  0  0  0  0  0  0  0
  147.5539  136.9386  154.6907 H   0  0  0  0  0  0  0  0  0  0  0  0
  149.2587  137.2704  154.5533 H   0  0  0  0  0  0  0  0  0  0  0  0
  147.6724  133.7896  155.4864 H   0  0  0  0  0  0  0  0  0  0  0  0
  146.6943  134.8441  154.5078 H   0  0  0  0  0  0  0  0  0  0  0  0
  147.6623  133.6901  152.4397 H   0  0  0  0  0  0  0  0  0  0  0  0
  146.2360  131.8640  154.4177 H   0  0  0  0  0  0  0  0  0  0  0  0
  146.3205  131.6356  152.6727 H   0  0  0  0  0  0  0  0  0  0  0  0
  145.4636  133.0198  153.3343 H   0  0  0  0  0  0  0  0  0  0  0  0
  148.8923  131.7689  154.4740 H   0  0  0  0  0  0  0  0  0  0  0  0
  149.7911  132.8510  153.4125 H   0  0  0  0  0  0  0  0  0  0  0  0
  148.8513  131.5352  152.7290 H   0  0  0  0  0  0  0  0  0  0  0  0
  150.2174  133.6667  154.5007 H   0  0  0  0  0  0  0  0  0  0  0  0
  150.8751  135.2816  154.4502 H   0  0  0  0  0  0  0  0  0  0  0  0
  149.4236  134.0626  156.8685 H   0  0  0  0  0  0  0  0  0  0  0  0
  151.1417  134.3744  156.7339 H   0  0  0  0  0  0  0  0  0  0  0  0
  153.4738  142.0704  160.4276 H   0  0  0  0  0  0  0  0  0  0  0  0
  148.8933  135.3725  153.4034 H   0  0  0  0  0  0  0  0  0  0  0  0
  1  2  1  0  0  0  0
  1 24  1  0  0  0  0
  1 25  1  0  0  0  0
  1 26  1  0  0  0  0
  2 23  2  0  0  0  0
  2  3  1  0  0  0  0
  3  4  2  0  0  0  0
  3 27  1  0  0  0  0
  4  5  1  0  0  0  0
  4 28  1  0  0  0  0
  5  6  1  0  0  0  0
  5 21  1  0  0  0  0
  6  7  1  0  0  0  0
  6 29  1  0  0  0  0
  6 30  1  0  0  0  0
  7  8  2  0  0  0  0
  7  9  1  0  0  0  0
  9 10  1  0  0  0  0
  9 31  1  0  0  0  0
 10 11  1  0  0  0  0
 10 32  1  0  0  0  0
 10 33  1  0  0  0  0
 11 20  1  0  0  0  0
 11 12  1  0  0  0  0
 11 34  1  0  0  0  0
 12 13  1  0  0  0  0
 12 35  1  0  0  0  0
 12 36  1  0  0  0  0
 13 14  1  0  0  0  0
 13 18  1  0  0  0  0
 13 51  1  0  0  0  0
 14 15  1  0  0  0  0
 14 37  1  0  0  0  0
 14 38  1  0  0  0  0
 15 16  1  0  0  0  0
 15 17  1  0  0  0  0
 15 39  1  0  0  0  0
 16 40  1  0  0  0  0
 16 41  1  0  0  0  0
 16 42  1  0  0  0  0
 17 43  1  0  0  0  0
 17 44  1  0  0  0  0
 17 45  1  0  0  0  0
 18 19  1  0  0  0  0
 18 46  1  0  0  0  0
 18 47  1  0  0  0  0
 19 20  1  0  0  0  0
 19 48  1  0  0  0  0
 19 49  1  0  0  0  0
 21 22  2  0  0  0  0
 21 23  1  0  0  0  0
 23 50  1  0  0  0  0
M  CHG  1  13   1
M  END
> <s_m_source_file>
AV-unprocessed.smi

> <i_m_source_file_index>
712

> <i_lp_mmshare_version>
43012

> <i_f3d_flags>
0

> <s_epik_input>
W0NIM11jMVtjSF1bY0hdbihjKD1PKVtjSF0xKVtDSDJdQyg9TylbTkhdW0NIMl1bQ0BASF0yW0NIMl1OKFtDSDJdW0NIMl1PMilbQ0gyXVtDSF0oW0NIM10pW0NIM10=

> <s_epik_cmdline>
J2VwaWtfcHl0aG9uJywgJy1waCcsICc3LjAnLCAnLXRuJywgJzgnLCAnLW1hJywgJzIwMCcsICctbWV0YWxfYmluZGluZycsICctaW1hZScsICc8aW5maWxlLm1hZT4nLCAnLW9tYWUnLCAnPG91dGZpbGUubWFlPic=

> <r_lp_tautomer_probability>
1

> <r_epik_Ionization_Penalty>
0.0975935

> <r_epik_Ionization_Penalty_Charging>
0.0975934

> <r_epik_Ionization_Penalty_Neutral>
6.27044e-08

> <r_epik_State_Penalty>
0.0877056

> <r_epik_Charging_Adjusted_Penalty>
0.185299

> <i_epik_Tot_Q>
1

> <i_epik_Tot_abs_Q>
1

> <r_epik_Metal_State_Penalty>
0.0877109

> <b_epik_Metal_Only>
0

> <s_lp_Force_Field>
OPLS_2005

> <r_lp_Energy>
28.3742

> <b_lp_Chiralities_Consistent>
1

> <s_lp_Variant>
AV-unprocessed.smi:712-2

> <Gold.Version>
5.8.1

> <Gold.Id.Protein>
6NUR|6NUR_protein|mol2

> <Gold.PLP.Fitness>
44.7564

> <Gold.PLP.PLP>
-34.0908

> <Gold.PLP.part.hbond>
-2.0000

> <Gold.PLP.part.metal>
0.0000

> <Gold.PLP.part.buried>
-3.6132

> <Gold.PLP.part.nonpolar>
-27.8619

> <Gold.PLP.part.repulsive>
0.0487

> <Gold.PLP.ligand.clash>
0.0000

> <Gold.PLP.ligand.torsion>
0.5139

> <Gold.PLP.Chemscore.Hbond>
2.8580

> <Gold.PLP.Chemscore.CHOScore>
0.9995

> <Gold.PLP.Chemscore.Metal>
0.0000

> <Gold.Chemscore.Hbonds>
donor molecule, donor type, donor heavy atom, donor atom, acceptor molecule, acceptor atom, score
      L1  H    13    51       P1  7948  2.00
      P1  H  7997  8008       L1    22  0.79
      L1  C     4    28       P1  8028  1.00

> <Gold.PLP.Chemscore.Internal.Correction>
0.1210

> <Gold.Rescore>
     Score         DG    S(hbond)    S(metal)    S(lipo)     H(rot)  DE(clash)    DE(int)     intcor
     15.44     -17.13       1.84        0.00      88.28       1.89       0.01       1.68       ----

> <Gold.Chemscore.Fitness>
15.4374

> <Gold.Chemscore.DG>
-17.1275

> <Gold.Chemscore.ZeroCoef>
-5.4800

> <Gold.Chemscore.Hbond>
1.8414

> <Gold.Chemscore.Metal>
0.0000

> <Gold.Chemscore.Lipo>
88.2752

> <Gold.Chemscore.Internal_Hbond>
0.0000

> <Gold.Chemscore.DEClash>
0.0098

> <Gold.Chemscore.DEInternal>
1.6804

> <Gold.Chemscore.Rot>
1.8871

> <Gold.Chemscore.Internal.Correction>
   9.000000E+99

> <Gold.Chemscore.Hbonds>
donor molecule, donor type, donor heavy atom, donor atom, acceptor molecule, acceptor atom, score
      L1  H    13    51       P1  7948  0.70
      P1  H  7997  8008       L1    22  0.75

> <Gold.Chemscore.Hbond.Weighted>
-6.1503

> <Gold.Chemscore.Metal.Weighted>
-0.0000

> <Gold.Chemscore.Lipo.Weighted>
-10.3282

> <Gold.Chemscore.Internal_Hbond.Weighted>
0.0000

> <Gold.Chemscore.DEClash.Weighted>
0.0098

> <Gold.Chemscore.DEInternal.Weighted>
1.6804

> <Gold.Chemscore.Rot.Weighted>
4.8309

> <Gold.Chemscore.Internal.Correction.Weighted>
   9.000000E+99

> <Gold.Protein.RotatedTorsions>
[ 6907 6896 6895 6894 ] final   51.14 input  -60.11 | X-H torsion
[ 7974 7965 7964 7962 ] final  164.05 input  175.53 | X-H torsion
[ 8008 7997 7996 7995 ] final  -86.96 input   59.86 | X-H torsion
[ 10167 10162 10161 10158 ] final  -13.14 input  -65.29 | X-H torsion
[ 10718 10713 10712 10709 ] final  -28.20 input   66.30 | X-H torsion
[ 10763 10752 10751 10750 ] final   50.07 input  -60.55 | X-H torsion
[ 11005 11000 10999 10996 ] final  131.69 input  -57.11 | X-H torsion

> <Gold.Protein.ActiveResidues>
 VAL166  LYS551  ARG553  GLY616  TRP617  ASP618  TYR619  PRO620  LYS621  CYS622 
 ASP623  PHE694  ASN695  SER759  ASP760  ASP761  ALA762  ILE779  LEU786  VAL792 
 PHE793  MET794  SER795  GLU796  ALA797  LYS798  CYS799  TRP800  GLU811  SER814 

> <Gold.Protein.RotatedAtoms>
  152.3095  134.7515  160.0339 H   0  0  0  0  0  0  0  0  0  0  0  0  # atno 6907 bound_to 6896
  151.8000  133.3363  159.3532 H   0  0  0  0  0  0  0  0  0  0  0  0  # atno 6908 bound_to 6896
  150.7313  134.5692  159.5926 H   0  0  0  0  0  0  0  0  0  0  0  0  # atno 6909 bound_to 6896
  144.7562  139.8270  143.6349 H   0  0  0  0  0  0  0  0  0  0  0  0  # atno 7974 bound_to 7965
  154.6578  140.0572  157.0028 H   0  0  0  0  0  0  0  0  0  0  0  0  # atno 8008 bound_to 7997
  155.1274  140.3253  155.4464 H   0  0  0  0  0  0  0  0  0  0  0  0  # atno 8009 bound_to 7997
  156.2605  140.1987  156.6394 H   0  0  0  0  0  0  0  0  0  0  0  0  # atno 8010 bound_to 7997
  140.7176  143.5457  150.9358 H   0  0  0  0  0  0  0  0  0  0  0  0  # atno 10167 bound_to 10162
  156.4283  130.4440  149.7135 H   0  0  0  0  0  0  0  0  0  0  0  0  # atno 10718 bound_to 10713
  152.9785  135.5891  154.4191 H   0  0  0  0  0  0  0  0  0  0  0  0  # atno 10763 bound_to 10752
  154.3818  135.2767  155.2209 H   0  0  0  0  0  0  0  0  0  0  0  0  # atno 10764 bound_to 10752
  154.4119  135.6079  153.6012 H   0  0  0  0  0  0  0  0  0  0  0  0  # atno 10765 bound_to 10752
  139.9745  134.9567  156.9475 H   0  0  0  0  0  0  0  0  0  0  0  0  # atno 11005 bound_to 11000
  146.1575  139.4678  143.0009 LP  0  0  0  0  0  0  0  0  0  0  0  0  # atno 17320 bound_to 7965
  145.6771  141.0201  143.1626 LP  0  0  0  0  0  0  0  0  0  0  0  0  # atno 17321 bound_to 7965
  139.9181  143.6639  152.3102 LP  0  0  0  0  0  0  0  0  0  0  0  0  # atno 17342 bound_to 10162
  139.7046  144.7630  151.1215 LP  0  0  0  0  0  0  0  0  0  0  0  0  # atno 17343 bound_to 10162
  156.4048  130.7693  151.2703 LP  0  0  0  0  0  0  0  0  0  0  0  0  # atno 17370 bound_to 10713
  157.7508  131.0229  150.3811 LP  0  0  0  0  0  0  0  0  0  0  0  0  # atno 17371 bound_to 10713
  140.5223  134.0895  155.7295 LP  0  0  0  0  0  0  0  0  0  0  0  0  # atno 17394 bound_to 11000
  141.1423  133.9116  157.2297 LP  0  0  0  0  0  0  0  0  0  0  0  0  # atno 17395 bound_to 11000

$$$$
