AV-unprocessed.smi:83|AV-procd|sdf|805|dock9
  -GOLD-   2262017193D 1   1.00000     0.00000
 Structure written by MMmdl.
 56 59  0  0  0  0  0  0  0  0  1 V2000
  153.4038  142.6025  162.0219 C   0  0  0  0  0  0  0  0  0  0  0  0
  152.5779  143.5500  161.1504 C   0  0  0  0  0  0  0  0  0  0  0  0
  152.4315  144.7179  161.5106 O   0  0  0  0  0  0  0  0  0  0  0  0
  152.0360  143.0675  160.0140 N   0  0  0  0  0  0  0  0  0  0  0  0
  151.2090  143.8225  159.0740 C   0  0  0  0  0  0  0  0  0  0  0  0
  150.6809  142.7911  158.0749 C   0  0  0  0  0  0  0  0  0  0  0  0
  151.7281  141.6832  158.0987 C   0  0  2  0  0  0  0  0  0  0  0  0
  151.2113  140.3221  157.5931 C   0  0  0  0  0  0  0  0  0  0  0  0
  150.8189  140.3570  156.1825 N   0  0  0  0  0  0  0  0  0  0  0  0
  151.5930  139.5649  155.2355 C   0  0  0  0  0  0  0  0  0  0  0  0
  149.5617  140.7643  155.8524 C   0  0  0  0  0  0  0  0  0  0  0  0
  149.2712  140.9288  154.5343 N   0  0  0  0  0  0  0  0  0  0  0  0
  148.0596  141.3331  154.1451 C   0  0  0  0  0  0  0  0  0  0  0  0
  146.9992  141.6283  154.8963 N   0  0  0  0  0  0  0  0  0  0  0  0
  147.2763  141.4704  156.2215 C   0  0  0  0  0  0  0  0  0  0  0  0
  148.5150  141.0440  156.7845 C   0  0  0  0  0  0  0  0  0  0  0  0
  148.4049  141.0184  158.1720 N   0  0  0  0  0  0  0  0  0  0  0  0
  147.1792  141.3952  158.4111 C   0  0  0  0  0  0  0  0  0  0  0  0
  146.4314  141.6864  157.2955 N   0  0  0  0  0  0  0  0  0  0  0  0
  145.0474  142.1261  157.2715 C   0  0  0  0  0  0  0  0  0  0  0  0
  144.9075  143.6396  157.5268 C   0  0  2  0  0  0  0  0  0  0  0  0
  145.2746  143.9250  158.8632 O   0  0  0  0  0  0  0  0  0  0  0  0
  143.4712  144.1402  157.2868 C   0  0  1  0  0  0  0  0  0  0  0  0
  143.2663  145.6338  157.5532 C   0  0  0  0  0  0  0  0  0  0  0  0
  142.1063  146.0129  156.6444 C   0  0  0  0  0  0  0  0  0  0  0  0
  141.9511  144.8078  155.7143 C   0  0  0  0  0  0  0  0  0  0  0  0
  143.1287  144.0397  155.9131 O   0  0  0  0  0  0  0  0  0  0  0  0
  152.2071  141.6923  159.5548 C   0  0  0  0  0  0  0  0  0  0  0  0
  152.8214  141.7236  162.2994 H   0  0  0  0  0  0  0  0  0  0  0  0
  153.7184  143.1004  162.9398 H   0  0  0  0  0  0  0  0  0  0  0  0
  154.2993  142.2767  161.4922 H   0  0  0  0  0  0  0  0  0  0  0  0
  150.3895  144.3446  159.5695 H   0  0  0  0  0  0  0  0  0  0  0  0
  151.8294  144.5622  158.5662 H   0  0  0  0  0  0  0  0  0  0  0  0
  149.7218  142.4048  158.4233 H   0  0  0  0  0  0  0  0  0  0  0  0
  150.5303  143.2090  157.0791 H   0  0  0  0  0  0  0  0  0  0  0  0
  152.5574  142.0069  157.4677 H   0  0  0  0  0  0  0  0  0  0  0  0
  151.9466  139.5420  157.7902 H   0  0  0  0  0  0  0  0  0  0  0  0
  150.3334  140.0392  158.1746 H   0  0  0  0  0  0  0  0  0  0  0  0
  151.5432  139.9945  154.2345 H   0  0  0  0  0  0  0  0  0  0  0  0
  151.2259  138.5390  155.1990 H   0  0  0  0  0  0  0  0  0  0  0  0
  152.6425  139.5351  155.5291 H   0  0  0  0  0  0  0  0  0  0  0  0
  147.9215  141.4369  153.0791 H   0  0  0  0  0  0  0  0  0  0  0  0
  146.7841  141.4718  159.4136 H   0  0  0  0  0  0  0  0  0  0  0  0
  144.6283  141.8660  156.2990 H   0  0  0  0  0  0  0  0  0  0  0  0
  144.4843  141.5584  158.0131 H   0  0  0  0  0  0  0  0  0  0  0  0
  145.5912  144.1788  156.8696 H   0  0  0  0  0  0  0  0  0  0  0  0
  146.0424  144.4758  158.8518 H   0  0  0  0  0  0  0  0  0  0  0  0
  142.7577  143.5552  157.8710 H   0  0  0  0  0  0  0  0  0  0  0  0
  143.0674  145.8473  158.6038 H   0  0  0  0  0  0  0  0  0  0  0  0
  144.1545  146.1960  157.2608 H   0  0  0  0  0  0  0  0  0  0  0  0
  141.1897  146.1878  157.2089 H   0  0  0  0  0  0  0  0  0  0  0  0
  142.3359  146.9214  156.0866 H   0  0  0  0  0  0  0  0  0  0  0  0
  141.0824  144.2128  155.9995 H   0  0  0  0  0  0  0  0  0  0  0  0
  141.8389  145.0950  154.6686 H   0  0  0  0  0  0  0  0  0  0  0  0
  153.2434  141.3587  159.6316 H   0  0  0  0  0  0  0  0  0  0  0  0
  151.5930  141.0387  160.1760 H   0  0  0  0  0  0  0  0  0  0  0  0
  1  2  1  0  0  0  0
  1 29  1  0  0  0  0
  1 30  1  0  0  0  0
  1 31  1  0  0  0  0
  2  3  2  0  0  0  0
  2  4  1  0  0  0  0
  4 28  1  0  0  0  0
  4  5  1  0  0  0  0
  5  6  1  0  0  0  0
  5 32  1  0  0  0  0
  5 33  1  0  0  0  0
  6  7  1  0  0  0  0
  6 34  1  0  0  0  0
  6 35  1  0  0  0  0
  7  8  1  0  0  0  0
  7 28  1  0  0  0  0
  7 36  1  0  0  0  0
  8  9  1  0  0  0  0
  8 37  1  0  0  0  0
  8 38  1  0  0  0  0
  9 10  1  0  0  0  0
  9 11  1  0  0  0  0
 10 39  1  0  0  0  0
 10 40  1  0  0  0  0
 10 41  1  0  0  0  0
 11 16  1  0  0  0  0
 11 12  2  0  0  0  0
 12 13  1  0  0  0  0
 13 14  2  0  0  0  0
 13 42  1  0  0  0  0
 14 15  1  0  0  0  0
 15 19  1  0  0  0  0
 15 16  2  0  0  0  0
 16 17  1  0  0  0  0
 17 18  2  0  0  0  0
 18 19  1  0  0  0  0
 18 43  1  0  0  0  0
 19 20  1  0  0  0  0
 20 21  1  0  0  0  0
 20 44  1  0  0  0  0
 20 45  1  0  0  0  0
 21 22  1  0  0  0  0
 21 23  1  0  0  0  0
 21 46  1  0  0  0  0
 22 47  1  0  0  0  0
 23 27  1  0  0  0  0
 23 24  1  0  0  0  0
 23 48  1  0  0  0  0
 24 25  1  0  0  0  0
 24 49  1  0  0  0  0
 24 50  1  0  0  0  0
 25 26  1  0  0  0  0
 25 51  1  0  0  0  0
 25 52  1  0  0  0  0
 26 27  1  0  0  0  0
 26 53  1  0  0  0  0
 26 54  1  0  0  0  0
 28 55  1  0  0  0  0
 28 56  1  0  0  0  0
M  END
> <s_m_source_file>
AV-unprocessed.smi

> <i_m_source_file_index>
83

> <i_lp_mmshare_version>
43012

> <i_f3d_flags>
0

> <s_epik_input>
W0NIM11DKD1PKU4xW0NIMl1bQ0gyXVtDQEhdKFtDSDJdMSlbQ0gyXU4oW0NIM10pYyhuW2NIXW4yKWMoYzIzKW5bY0hdbjNbQ0gyXVtDQEhdKFtPSF0pW0NAQEhdNFtDSDJdW0NIMl1bQ0gyXU80

> <s_epik_cmdline>
J2VwaWtfcHl0aG9uJywgJy1waCcsICc3LjAnLCAnLXRuJywgJzgnLCAnLW1hJywgJzIwMCcsICctbWV0YWxfYmluZGluZycsICctaW1hZScsICc8aW5maWxlLm1hZT4nLCAnLW9tYWUnLCAnPG91dGZpbGUubWFlPic=

> <r_lp_tautomer_probability>
1

> <r_epik_Ionization_Penalty>
0.00109752

> <r_epik_Ionization_Penalty_Charging>
0

> <r_epik_Ionization_Penalty_Neutral>
0.00109752

> <r_epik_State_Penalty>
0.000634803

> <r_epik_Charging_Adjusted_Penalty>
0.000634803

> <i_epik_Tot_Q>
0

> <i_epik_Tot_abs_Q>
0

> <r_epik_Metal_State_Penalty>
-0

> <b_epik_Metal_Only>
0

> <s_lp_Force_Field>
OPLS_2005

> <r_lp_Energy>
52.1459

> <b_lp_Chiralities_Consistent>
1

> <s_lp_Variant>
AV-unprocessed.smi:83-6

> <Gold.Version>
5.8.1

> <Gold.Id.Protein>
6NUR|6NUR_protein|mol2

> <Gold.PLP.Fitness>
52.7189

> <Gold.PLP.PLP>
-45.9806

> <Gold.PLP.part.hbond>
-2.1049

> <Gold.PLP.part.metal>
0.0000

> <Gold.PLP.part.buried>
-1.9519

> <Gold.PLP.part.nonpolar>
-42.0622

> <Gold.PLP.part.repulsive>
1.4903

> <Gold.PLP.ligand.clash>
0.0000

> <Gold.PLP.ligand.torsion>
0.7413

> <Gold.PLP.Chemscore.Hbond>
1.5920

> <Gold.PLP.Chemscore.CHOScore>
1.0000

> <Gold.PLP.Chemscore.Metal>
0.0000

> <Gold.Chemscore.Hbonds>
donor molecule, donor type, donor heavy atom, donor atom, acceptor molecule, acceptor atom, score
      L1  C    13    42       P1  7957  0.07

> <Gold.PLP.Chemscore.Internal.Correction>
0.4449

> <Gold.Rescore>
     Score         DG    S(hbond)    S(metal)    S(lipo)     H(rot)  DE(clash)    DE(int)     intcor
      8.92     -12.27       0.75        0.00      93.82       2.62       1.41       1.94       ----

> <Gold.Chemscore.Fitness>
8.9202

> <Gold.Chemscore.DG>
-12.2703

> <Gold.Chemscore.ZeroCoef>
-5.4800

> <Gold.Chemscore.Hbond>
0.7511

> <Gold.Chemscore.Metal>
0.0000

> <Gold.Chemscore.Lipo>
93.8174

> <Gold.Chemscore.Internal_Hbond>
0.0000

> <Gold.Chemscore.DEClash>
1.4097

> <Gold.Chemscore.DEInternal>
1.9404

> <Gold.Chemscore.Rot>
2.6152

> <Gold.Chemscore.Internal.Correction>
   9.000000E+99

> <Gold.Chemscore.Hbond.Weighted>
-2.5086

> <Gold.Chemscore.Metal.Weighted>
-0.0000

> <Gold.Chemscore.Lipo.Weighted>
-10.9766

> <Gold.Chemscore.Internal_Hbond.Weighted>
0.0000

> <Gold.Chemscore.DEClash.Weighted>
1.4097

> <Gold.Chemscore.DEInternal.Weighted>
1.9404

> <Gold.Chemscore.Rot.Weighted>
6.6949

> <Gold.Chemscore.Internal.Correction.Weighted>
   9.000000E+99

> <Gold.Protein.RotatedTorsions>
[ 6907 6896 6895 6894 ] final -112.06 input  -60.11 | X-H torsion
[ 7974 7965 7964 7962 ] final  164.32 input  175.53 | X-H torsion
[ 8008 7997 7996 7995 ] final -144.50 input   59.86 | X-H torsion
[ 10167 10162 10161 10158 ] final  -38.42 input  -65.29 | X-H torsion
[ 10718 10713 10712 10709 ] final   86.57 input   66.30 | X-H torsion
[ 10763 10752 10751 10750 ] final  150.52 input  -60.55 | X-H torsion
[ 11005 11000 10999 10996 ] final -172.76 input  -57.11 | X-H torsion

> <Gold.Protein.ActiveResidues>
 VAL166  LYS551  ARG553  GLY616  TRP617  ASP618  TYR619  PRO620  LYS621  CYS622 
 ASP623  PHE694  ASN695  SER759  ASP760  ASP761  ALA762  ILE779  LEU786  VAL792 
 PHE793  MET794  SER795  GLU796  ALA797  LYS798  CYS799  TRP800  GLU811  SER814 

> <Gold.Protein.RotatedAtoms>
  150.7732  133.9145  159.3379 H   0  0  0  0  0  0  0  0  0  0  0  0  # atno 6907 bound_to 6896
  151.7026  135.0925  160.0263 H   0  0  0  0  0  0  0  0  0  0  0  0  # atno 6908 bound_to 6896
  152.3758  133.6441  159.6158 H   0  0  0  0  0  0  0  0  0  0  0  0  # atno 6909 bound_to 6896
  144.7550  139.8309  143.6353 H   0  0  0  0  0  0  0  0  0  0  0  0  # atno 7974 bound_to 7965
  155.5279  140.0597  157.2894 H   0  0  0  0  0  0  0  0  0  0  0  0  # atno 8008 bound_to 7997
  154.4494  140.1941  156.0510 H   0  0  0  0  0  0  0  0  0  0  0  0  # atno 8009 bound_to 7997
  156.0673  140.3264  155.7537 H   0  0  0  0  0  0  0  0  0  0  0  0  # atno 8010 bound_to 7997
  140.7092  143.3278  151.2639 H   0  0  0  0  0  0  0  0  0  0  0  0  # atno 10167 bound_to 10162
  157.6930  131.0221  150.2992 H   0  0  0  0  0  0  0  0  0  0  0  0  # atno 10718 bound_to 10713
  154.0889  135.2854  155.3275 H   0  0  0  0  0  0  0  0  0  0  0  0  # atno 10763 bound_to 10752
  154.6634  135.5326  153.8049 H   0  0  0  0  0  0  0  0  0  0  0  0  # atno 10764 bound_to 10752
  153.0421  135.6539  154.1059 H   0  0  0  0  0  0  0  0  0  0  0  0  # atno 10765 bound_to 10752
  140.4934  134.5963  157.4962 H   0  0  0  0  0  0  0  0  0  0  0  0  # atno 11005 bound_to 11000
  146.1549  139.4644  143.0025 LP  0  0  0  0  0  0  0  0  0  0  0  0  # atno 17320 bound_to 7965
  145.6810  141.0191  143.1606 LP  0  0  0  0  0  0  0  0  0  0  0  0  # atno 17321 bound_to 7965
  139.6752  143.9951  152.2776 LP  0  0  0  0  0  0  0  0  0  0  0  0  # atno 17342 bound_to 10162
  139.9562  144.6588  150.8123 LP  0  0  0  0  0  0  0  0  0  0  0  0  # atno 17343 bound_to 10162
  156.3511  130.3831  149.7328 LP  0  0  0  0  0  0  0  0  0  0  0  0  # atno 17370 bound_to 10713
  156.4806  130.8039  151.3053 LP  0  0  0  0  0  0  0  0  0  0  0  0  # atno 17371 bound_to 10713
  139.9756  134.7221  155.9957 LP  0  0  0  0  0  0  0  0  0  0  0  0  # atno 17394 bound_to 11000
  141.1472  133.6554  156.3904 LP  0  0  0  0  0  0  0  0  0  0  0  0  # atno 17395 bound_to 11000

$$$$
