AV-unprocessed.smi:2510|AV-procd|sdf|9872|dock5
  -GOLD-   2272013503D 1   1.00000     0.00000
 Structure written by MMmdl.
 48 49  0  0  0  0  0  0  0  0  1 V2000
  149.2582  141.2760  154.5532 C   0  0  0  0  0  0  0  0  0  0  0  0
  149.4489  140.1335  155.5669 C   0  0  0  0  0  0  0  0  0  0  0  0
  150.4940  140.3747  156.6945 C   0  0  0  0  0  0  0  0  0  0  0  0
  150.4575  141.8520  157.1318 C   0  0  0  0  0  0  0  0  0  0  0  0
  151.5017  142.2292  158.1946 C   0  0  0  0  0  0  0  0  0  0  0  0
  150.5405  139.3456  157.8603 C   0  0  1  0  0  0  0  0  0  0  0  0
  149.3070  138.6048  158.1014 N   0  0  0  0  0  0  0  0  0  0  0  0
  149.2380  137.3927  158.6727 C   0  0  0  0  0  0  0  0  0  0  0  0
  150.2232  136.7798  159.0837 O   0  0  0  0  0  0  0  0  0  0  0  0
  147.8443  136.7723  158.7916 C   0  0  0  0  0  0  0  0  0  0  0  0
  147.5800  136.3358  160.2082 C   0  0  0  0  0  0  0  0  0  0  0  0
  147.1918  135.0433  160.6702 C   0  0  0  0  0  0  0  0  0  0  0  0
  147.1040  135.1811  162.0267 C   0  0  0  0  0  0  0  0  0  0  0  0
  146.7534  134.2052  163.0975 C   0  0  0  0  0  0  0  0  0  0  0  0
  147.4206  136.4913  162.3014 N   0  0  0  0  0  0  0  0  0  0  0  0
  147.7101  137.2077  161.1997 N   0  0  0  0  0  0  0  0  0  0  0  0
  151.5638  138.5151  157.0779 C   0  0  2  0  0  0  0  0  0  0  0  0
  152.6277  137.7468  157.8511 C   0  0  0  0  0  0  0  0  0  0  0  0
  151.9205  139.8410  156.3914 C   0  0  1  0  0  0  0  0  0  0  0  0
  152.1933  139.7445  155.0008 O   0  0  0  0  0  0  0  0  0  0  0  0
  153.0593  138.6726  154.6730 C   0  0  0  0  0  0  0  0  0  0  0  0
  147.4420  136.9045  163.2230 H   0  0  0  0  0  0  0  0  0  0  0  0
  148.3871  141.0889  153.9253 H   0  0  0  0  0  0  0  0  0  0  0  0
  150.1160  141.3721  153.8884 H   0  0  0  0  0  0  0  0  0  0  0  0
  149.1099  142.2362  155.0406 H   0  0  0  0  0  0  0  0  0  0  0  0
  148.4741  139.9173  156.0042 H   0  0  0  0  0  0  0  0  0  0  0  0
  149.7013  139.2327  155.0073 H   0  0  0  0  0  0  0  0  0  0  0  0
  150.5486  142.5162  156.2729 H   0  0  0  0  0  0  0  0  0  0  0  0
  149.4753  142.0813  157.5462 H   0  0  0  0  0  0  0  0  0  0  0  0
  151.3741  143.2661  158.5056 H   0  0  0  0  0  0  0  0  0  0  0  0
  152.5193  142.1261  157.8192 H   0  0  0  0  0  0  0  0  0  0  0  0
  151.4071  141.6049  159.0833 H   0  0  0  0  0  0  0  0  0  0  0  0
  150.9893  139.7631  158.7655 H   0  0  0  0  0  0  0  0  0  0  0  0
  148.4450  139.0397  157.8042 H   0  0  0  0  0  0  0  0  0  0  0  0
  147.0992  137.4966  158.4597 H   0  0  0  0  0  0  0  0  0  0  0  0
  147.7689  135.9201  158.1150 H   0  0  0  0  0  0  0  0  0  0  0  0
  147.0148  134.1490  160.0912 H   0  0  0  0  0  0  0  0  0  0  0  0
  146.6033  133.2083  162.6823 H   0  0  0  0  0  0  0  0  0  0  0  0
  145.8351  134.5006  163.6049 H   0  0  0  0  0  0  0  0  0  0  0  0
  147.5482  134.1436  163.8411 H   0  0  0  0  0  0  0  0  0  0  0  0
  151.0562  137.8604  156.3669 H   0  0  0  0  0  0  0  0  0  0  0  0
  153.1984  138.4057  158.5059 H   0  0  0  0  0  0  0  0  0  0  0  0
  153.3326  137.2556  157.1812 H   0  0  0  0  0  0  0  0  0  0  0  0
  152.1769  136.9744  158.4746 H   0  0  0  0  0  0  0  0  0  0  0  0
  152.6880  140.3992  156.9336 H   0  0  0  0  0  0  0  0  0  0  0  0
  153.2628  138.6837  153.6022 H   0  0  0  0  0  0  0  0  0  0  0  0
  152.6105  137.7099  154.9155 H   0  0  0  0  0  0  0  0  0  0  0  0
  154.0120  138.7595  155.1970 H   0  0  0  0  0  0  0  0  0  0  0  0
  1  2  1  0  0  0  0
  1 23  1  0  0  0  0
  1 24  1  0  0  0  0
  1 25  1  0  0  0  0
  2  3  1  0  0  0  0
  2 26  1  0  0  0  0
  2 27  1  0  0  0  0
  3 19  1  0  0  0  0
  3  4  1  0  0  0  0
  3  6  1  0  0  0  0
  4  5  1  0  0  0  0
  4 28  1  0  0  0  0
  4 29  1  0  0  0  0
  5 30  1  0  0  0  0
  5 31  1  0  0  0  0
  5 32  1  0  0  0  0
  6  7  1  0  0  0  0
  6 17  1  0  0  0  0
  6 33  1  0  0  0  0
  7  8  1  0  0  0  0
  7 34  1  0  0  0  0
  8  9  2  0  0  0  0
  8 10  1  0  0  0  0
 10 11  1  0  0  0  0
 10 35  1  0  0  0  0
 10 36  1  0  0  0  0
 11 16  2  0  0  0  0
 11 12  1  0  0  0  0
 12 13  2  0  0  0  0
 12 37  1  0  0  0  0
 13 14  1  0  0  0  0
 13 15  1  0  0  0  0
 14 38  1  0  0  0  0
 14 39  1  0  0  0  0
 14 40  1  0  0  0  0
 15 22  1  0  0  0  0
 15 16  1  0  0  0  0
 17 18  1  0  0  0  0
 17 19  1  0  0  0  0
 17 41  1  0  0  0  0
 18 42  1  0  0  0  0
 18 43  1  0  0  0  0
 18 44  1  0  0  0  0
 19 20  1  0  0  0  0
 19 45  1  0  0  0  0
 20 21  1  0  0  0  0
 21 46  1  0  0  0  0
 21 47  1  0  0  0  0
 21 48  1  0  0  0  0
M  END
> <s_m_source_file>
AV-unprocessed.smi

> <i_m_source_file_index>
2510

> <i_lp_mmshare_version>
43012

> <i_f3d_flags>
0

> <s_epik_input>
W0NIM11PW0NAQEhdMVtDQEhdKFtDSDNdKVtDQEBIXShDMShbQ0gyXVtDSDNdKVtDSDJdW0NIM10pW05IXUMoPU8pW0NIMl1jMltjSF1jKFtDSDNdKVtuSF1uMg==

> <s_epik_cmdline>
J2VwaWtfcHl0aG9uJywgJy1waCcsICc3LjAnLCAnLXRuJywgJzgnLCAnLW1hJywgJzIwMCcsICctbWV0YWxfYmluZGluZycsICctaW1hZScsICc8aW5maWxlLm1hZT4nLCAnLW9tYWUnLCAnPG91dGZpbGUubWFlPic=

> <r_lp_tautomer_probability>
0.5

> <r_epik_Ionization_Penalty>
9.73156e-05

> <r_epik_Ionization_Penalty_Charging>
0

> <r_epik_Ionization_Penalty_Neutral>
9.73156e-05

> <r_epik_State_Penalty>
0.41068

> <r_epik_Charging_Adjusted_Penalty>
0.41068

> <i_epik_Tot_Q>
0

> <i_epik_Tot_abs_Q>
0

> <r_epik_Metal_State_Penalty>
0.410699

> <b_epik_Metal_Only>
0

> <s_lp_Force_Field>
OPLS_2005

> <r_lp_Energy>
23.9763

> <b_lp_Chiralities_Consistent>
1

> <s_lp_Variant>
AV-unprocessed.smi:2510-3

> <Gold.Version>
5.8.1

> <Gold.Id.Protein>
6NUR|6NUR_protein|mol2

> <Gold.PLP.Fitness>
42.8484

> <Gold.PLP.PLP>
-33.6340

> <Gold.PLP.part.hbond>
-3.9894

> <Gold.PLP.part.metal>
0.0000

> <Gold.PLP.part.buried>
-4.0211

> <Gold.PLP.part.nonpolar>
-27.3312

> <Gold.PLP.part.repulsive>
0.3351

> <Gold.PLP.ligand.clash>
0.0000

> <Gold.PLP.ligand.torsion>
0.9987

> <Gold.PLP.Chemscore.Hbond>
3.5350

> <Gold.PLP.Chemscore.CHOScore>
0.0000

> <Gold.PLP.Chemscore.Metal>
0.0000

> <Gold.Chemscore.Hbonds>
donor molecule, donor type, donor heavy atom, donor atom, acceptor molecule, acceptor atom, score
      P1  H  6896  6908       L1     9  0.94
      P1  H  6931  6943       L1    16  0.85
      P1  H  6934  6947       L1    16  0.85
      P1  H  7989  7998       L1    20  0.78

> <Gold.PLP.Chemscore.Internal.Correction>
0.6067

> <Gold.Rescore>
     Score         DG    S(hbond)    S(metal)    S(lipo)     H(rot)  DE(clash)    DE(int)     intcor
     17.84     -20.27       2.67        0.00      89.81       1.81       0.44       1.99       ----

> <Gold.Chemscore.Fitness>
17.8444

> <Gold.Chemscore.DG>
-20.2668

> <Gold.Chemscore.ZeroCoef>
-5.4800

> <Gold.Chemscore.Hbond>
2.6686

> <Gold.Chemscore.Metal>
0.0000

> <Gold.Chemscore.Lipo>
89.8116

> <Gold.Chemscore.Internal_Hbond>
0.0000

> <Gold.Chemscore.DEClash>
0.4369

> <Gold.Chemscore.DEInternal>
1.9855

> <Gold.Chemscore.Rot>
1.8102

> <Gold.Chemscore.Internal.Correction>
   9.000000E+99

> <Gold.Chemscore.Hbonds>
donor molecule, donor type, donor heavy atom, donor atom, acceptor molecule, acceptor atom, score
      P1  H  6896  6908       L1     9  0.90
      P1  H  6931  6943       L1    16  0.16
      P1  H  6934  6947       L1    16  0.81
      P1  H  7989  7998       L1    20  0.71

> <Gold.Chemscore.Hbond.Weighted>
-8.9130

> <Gold.Chemscore.Metal.Weighted>
-0.0000

> <Gold.Chemscore.Lipo.Weighted>
-10.5080

> <Gold.Chemscore.Internal_Hbond.Weighted>
0.0000

> <Gold.Chemscore.DEClash.Weighted>
0.4369

> <Gold.Chemscore.DEInternal.Weighted>
1.9855

> <Gold.Chemscore.Rot.Weighted>
4.6341

> <Gold.Chemscore.Internal.Correction.Weighted>
   9.000000E+99

> <Gold.Protein.RotatedTorsions>
[ 6907 6896 6895 6894 ] final -156.49 input  -60.11 | X-H torsion
[ 7974 7965 7964 7962 ] final  -96.53 input  175.53 | X-H torsion
[ 8008 7997 7996 7995 ] final  120.71 input   59.86 | X-H torsion
[ 10167 10162 10161 10158 ] final  -49.54 input  -65.29 | X-H torsion
[ 10718 10713 10712 10709 ] final   63.94 input   66.30 | X-H torsion
[ 10763 10752 10751 10750 ] final  131.31 input  -60.55 | X-H torsion
[ 11005 11000 10999 10996 ] final   47.44 input  -57.11 | X-H torsion

> <Gold.Protein.ActiveResidues>
 VAL166  LYS551  ARG553  GLY616  TRP617  ASP618  TYR619  PRO620  LYS621  CYS622 
 ASP623  PHE694  ASN695  SER759  ASP760  ASP761  ALA762  ILE779  LEU786  VAL792 
 PHE793  MET794  SER795  GLU796  ALA797  LYS798  CYS799  TRP800  GLU811  SER814 

> <Gold.Protein.RotatedAtoms>
  151.2884  133.4177  159.2631 H   0  0  0  0  0  0  0  0  0  0  0  0  # atno 6907 bound_to 6896
  151.0299  134.9532  159.8116 H   0  0  0  0  0  0  0  0  0  0  0  0  # atno 6908 bound_to 6896
  152.5343  134.2845  159.9072 H   0  0  0  0  0  0  0  0  0  0  0  0  # atno 6909 bound_to 6896
  145.3456  140.9467  143.2583 H   0  0  0  0  0  0  0  0  0  0  0  0  # atno 7974 bound_to 7965
  156.2655  140.2824  156.1193 H   0  0  0  0  0  0  0  0  0  0  0  0  # atno 8008 bound_to 7997
  155.1172  140.0391  157.2758 H   0  0  0  0  0  0  0  0  0  0  0  0  # atno 8009 bound_to 7997
  154.6697  140.2585  155.7026 H   0  0  0  0  0  0  0  0  0  0  0  0  # atno 8010 bound_to 7997
  140.6680  143.2694  151.4229 H   0  0  0  0  0  0  0  0  0  0  0  0  # atno 10167 bound_to 10162
  157.6006  130.9133  149.9781 H   0  0  0  0  0  0  0  0  0  0  0  0  # atno 10718 bound_to 10713
  153.7722  135.3180  155.3353 H   0  0  0  0  0  0  0  0  0  0  0  0  # atno 10763 bound_to 10752
  154.8192  135.4615  154.0733 H   0  0  0  0  0  0  0  0  0  0  0  0  # atno 10764 bound_to 10752
  153.1996  135.6920  153.8332 H   0  0  0  0  0  0  0  0  0  0  0  0  # atno 10765 bound_to 10752
  140.1279  134.4744  155.8545 H   0  0  0  0  0  0  0  0  0  0  0  0  # atno 11005 bound_to 11000
  144.8756  139.4975  143.6747 LP  0  0  0  0  0  0  0  0  0  0  0  0  # atno 17320 bound_to 7965
  146.2989  139.7364  142.9106 LP  0  0  0  0  0  0  0  0  0  0  0  0  # atno 17321 bound_to 7965
  139.5937  144.1444  152.2118 LP  0  0  0  0  0  0  0  0  0  0  0  0  # atno 17342 bound_to 10162
  140.0806  144.5703  150.7125 LP  0  0  0  0  0  0  0  0  0  0  0  0  # atno 17343 bound_to 10162
  156.1078  130.3651  150.0102 LP  0  0  0  0  0  0  0  0  0  0  0  0  # atno 17370 bound_to 10713
  156.8206  130.9357  151.3641 LP  0  0  0  0  0  0  0  0  0  0  0  0  # atno 17371 bound_to 10713
  141.2164  133.6785  156.7013 LP  0  0  0  0  0  0  0  0  0  0  0  0  # atno 17394 bound_to 11000
  140.2880  134.8263  157.3992 LP  0  0  0  0  0  0  0  0  0  0  0  0  # atno 17395 bound_to 11000

$$$$
