AV-unprocessed.smi:890|AV-procd|sdf|4058|dock1
  -GOLD-   22720 1543D 1   1.00000     0.00000
 Structure written by MMmdl.
 52 55  0  0  0  0  0  0  0  0  2 V2000
  154.0416  140.1910  160.7243 O   0  0  0  0  0  0  0  0  0  0  0  0
  153.4407  139.3229  160.0916 C   0  0  0  0  0  0  0  0  0  0  0  0
  152.5712  139.5493  159.0925 N   0  0  0  0  0  0  0  0  0  0  0  0
  152.1381  140.7981  158.5602 C   0  0  0  0  0  0  0  0  0  0  0  0
  152.3329  142.0256  159.2402 C   0  0  0  0  0  0  0  0  0  0  0  0
  151.9057  143.2215  158.6368 C   0  0  0  0  0  0  0  0  0  0  0  0
  151.3065  143.1511  157.3675 C   0  0  0  0  0  0  0  0  0  0  0  0
  151.1285  141.9935  156.6997 N   0  0  0  0  0  0  0  0  0  0  0  0
  151.5405  140.8351  157.2708 C   0  0  0  0  0  0  0  0  0  0  0  0
  151.3168  139.6385  156.5575 N   0  0  0  0  0  0  0  0  0  0  0  0
  150.4548  139.8056  155.3901 C   0  0  0  0  0  0  0  0  0  0  0  0
  150.9964  138.8636  154.3134 C   0  0  0  0  0  0  0  0  0  0  0  0
  152.4754  138.7570  154.6631 C   0  0  0  0  0  0  0  0  0  0  0  0
  152.4555  138.7974  156.1901 C   0  0  0  0  0  0  0  0  0  0  0  0
  153.5674  138.0109  160.3380 N   0  0  0  0  0  0  0  0  0  0  0  0
  154.4415  137.4319  161.3544 C   0  0  2  0  0  0  0  0  0  0  0  0
  155.0256  136.1013  160.8525 C   0  0  0  0  0  0  0  0  0  0  0  0
  155.9025  135.4385  161.9325 C   0  0  0  0  0  0  0  0  0  0  0  0
  155.1706  135.2489  163.2118 N   0  3  2  0  0  0  0  0  0  0  0  0
  154.1989  134.1310  163.1716 C   0  0  0  0  0  0  0  0  0  0  0  0
  153.8639  133.5705  164.5345 C   0  0  0  0  0  0  0  0  0  0  0  0
  154.7818  132.8068  163.6066 C   0  0  0  0  0  0  0  0  0  0  0  0
  154.5865  136.5176  163.7186 C   0  0  0  0  0  0  0  0  0  0  0  0
  153.6825  137.1986  162.6743 C   0  0  0  0  0  0  0  0  0  0  0  0
  152.0931  138.7391  158.7259 H   0  0  0  0  0  0  0  0  0  0  0  0
  152.8157  142.0755  160.2038 H   0  0  0  0  0  0  0  0  0  0  0  0
  152.0398  144.1707  159.1338 H   0  0  0  0  0  0  0  0  0  0  0  0
  150.9662  144.0483  156.8721 H   0  0  0  0  0  0  0  0  0  0  0  0
  149.4164  139.5769  155.6310 H   0  0  0  0  0  0  0  0  0  0  0  0
  150.4955  140.8374  155.0368 H   0  0  0  0  0  0  0  0  0  0  0  0
  150.5253  137.8841  154.4062 H   0  0  0  0  0  0  0  0  0  0  0  0
  150.8201  139.2297  153.3018 H   0  0  0  0  0  0  0  0  0  0  0  0
  152.9468  137.8570  154.2676 H   0  0  0  0  0  0  0  0  0  0  0  0
  153.0130  139.6232  154.2749 H   0  0  0  0  0  0  0  0  0  0  0  0
  153.4119  139.1238  156.5990 H   0  0  0  0  0  0  0  0  0  0  0  0
  152.2689  137.7982  156.5847 H   0  0  0  0  0  0  0  0  0  0  0  0
  153.0322  137.3674  159.7733 H   0  0  0  0  0  0  0  0  0  0  0  0
  155.2700  138.1194  161.5373 H   0  0  0  0  0  0  0  0  0  0  0  0
  154.2204  135.4248  160.5621 H   0  0  0  0  0  0  0  0  0  0  0  0
  155.6200  136.2709  159.9539 H   0  0  0  0  0  0  0  0  0  0  0  0
  156.2859  134.4813  161.5773 H   0  0  0  0  0  0  0  0  0  0  0  0
  156.7743  136.0648  162.1260 H   0  0  0  0  0  0  0  0  0  0  0  0
  153.4401  134.1665  162.3924 H   0  0  0  0  0  0  0  0  0  0  0  0
  154.3113  134.0381  165.4100 H   0  0  0  0  0  0  0  0  0  0  0  0
  152.8614  133.1740  164.6815 H   0  0  0  0  0  0  0  0  0  0  0  0
  154.3840  131.9063  163.1430 H   0  0  0  0  0  0  0  0  0  0  0  0
  155.8382  132.7678  163.8666 H   0  0  0  0  0  0  0  0  0  0  0  0
  154.0316  136.3321  164.6390 H   0  0  0  0  0  0  0  0  0  0  0  0
  155.4036  137.1896  163.9842 H   0  0  0  0  0  0  0  0  0  0  0  0
  153.3210  138.1463  163.0747 H   0  0  0  0  0  0  0  0  0  0  0  0
  152.7970  136.5875  162.4938 H   0  0  0  0  0  0  0  0  0  0  0  0
  155.8643  134.9709  163.8914 H   0  0  0  0  0  0  0  0  0  0  0  0
  1  2  2  0  0  0  0
  2  3  1  0  0  0  0
  2 15  1  0  0  0  0
  3  4  1  0  0  0  0
  3 25  1  0  0  0  0
  4  9  1  0  0  0  0
  4  5  2  0  0  0  0
  5  6  1  0  0  0  0
  5 26  1  0  0  0  0
  6  7  2  0  0  0  0
  6 27  1  0  0  0  0
  7  8  1  0  0  0  0
  7 28  1  0  0  0  0
  8  9  2  0  0  0  0
  9 10  1  0  0  0  0
 10 14  1  0  0  0  0
 10 11  1  0  0  0  0
 11 12  1  0  0  0  0
 11 29  1  0  0  0  0
 11 30  1  0  0  0  0
 12 13  1  0  0  0  0
 12 31  1  0  0  0  0
 12 32  1  0  0  0  0
 13 14  1  0  0  0  0
 13 33  1  0  0  0  0
 13 34  1  0  0  0  0
 14 35  1  0  0  0  0
 14 36  1  0  0  0  0
 15 16  1  0  0  0  0
 15 37  1  0  0  0  0
 16 24  1  0  0  0  0
 16 17  1  0  0  0  0
 16 38  1  0  0  0  0
 17 18  1  0  0  0  0
 17 39  1  0  0  0  0
 17 40  1  0  0  0  0
 18 19  1  0  0  0  0
 18 41  1  0  0  0  0
 18 42  1  0  0  0  0
 19 20  1  0  0  0  0
 19 23  1  0  0  0  0
 19 52  1  0  0  0  0
 20 22  1  0  0  0  0
 20 21  1  0  0  0  0
 20 43  1  0  0  0  0
 21 22  1  0  0  0  0
 21 44  1  0  0  0  0
 21 45  1  0  0  0  0
 22 46  1  0  0  0  0
 22 47  1  0  0  0  0
 23 24  1  0  0  0  0
 23 48  1  0  0  0  0
 23 49  1  0  0  0  0
 24 50  1  0  0  0  0
 24 51  1  0  0  0  0
M  CHG  1  19   1
M  END
> <s_m_source_file>
AV-unprocessed.smi

> <i_m_source_file_index>
890

> <i_lp_mmshare_version>
43012

> <i_f3d_flags>
0

> <s_epik_input>
W0NIMl0xW0NIMl1bQ0hdMU4oW0NIMl1bQ0gyXTIpW0NIMl1bQ0gyXVtDSF0yW05IXUMoPU8pW05IXWMzW2NIXVtjSF1bY0hdbmMzTjRbQ0gyXVtDSDJdW0NIMl1bQ0gyXTQ=

> <s_epik_cmdline>
J2VwaWtfcHl0aG9uJywgJy1waCcsICc3LjAnLCAnLXRuJywgJzgnLCAnLW1hJywgJzIwMCcsICctbWV0YWxfYmluZGluZycsICctaW1hZScsICc8aW5maWxlLm1hZT4nLCAnLW9tYWUnLCAnPG91dGZpbGUubWFlPic=

> <r_lp_tautomer_probability>
1

> <r_epik_Ionization_Penalty>
0.193768

> <r_epik_Ionization_Penalty_Charging>
0.115549

> <r_epik_Ionization_Penalty_Neutral>
0.078219

> <r_epik_State_Penalty>
0.174811

> <r_epik_Charging_Adjusted_Penalty>
0.29036

> <i_epik_Tot_Q>
1

> <i_epik_Tot_abs_Q>
1

> <r_epik_Metal_State_Penalty>
0.169761

> <b_epik_Metal_Only>
0

> <s_lp_Force_Field>
OPLS_2005

> <r_lp_Energy>
56.2334

> <b_lp_Chiralities_Consistent>
1

> <s_lp_Variant>
AV-unprocessed.smi:890-2

> <Gold.Version>
5.8.1

> <Gold.Id.Protein>
6NUR|6NUR_protein|mol2

> <Gold.PLP.Fitness>
42.9990

> <Gold.PLP.PLP>
-40.9207

> <Gold.PLP.part.hbond>
0.0000

> <Gold.PLP.part.metal>
0.0000

> <Gold.PLP.part.buried>
-5.8088

> <Gold.PLP.part.nonpolar>
-35.8124

> <Gold.PLP.part.repulsive>
0.2236

> <Gold.PLP.ligand.clash>
0.0000

> <Gold.PLP.ligand.torsion>
1.1768

> <Gold.PLP.Chemscore.Hbond>
0.0000

> <Gold.PLP.Chemscore.CHOScore>
1.0000

> <Gold.PLP.Chemscore.Metal>
0.0000

> <Gold.Chemscore.Hbonds>
donor molecule, donor type, donor heavy atom, donor atom, acceptor molecule, acceptor atom, score
      L1  C     7    28       P1  8028  1.00

> <Gold.PLP.Chemscore.Internal.Correction>
1.4319

> <Gold.Rescore>
     Score         DG    S(hbond)    S(metal)    S(lipo)     H(rot)  DE(clash)    DE(int)     intcor
     13.83     -16.49       0.00        0.00     123.15       1.33       0.05       2.60       ----

> <Gold.Chemscore.Fitness>
13.8329

> <Gold.Chemscore.DG>
-16.4855

> <Gold.Chemscore.ZeroCoef>
-5.4800

> <Gold.Chemscore.Hbond>
0.0000

> <Gold.Chemscore.Metal>
0.0000

> <Gold.Chemscore.Lipo>
123.1509

> <Gold.Chemscore.Internal_Hbond>
0.0000

> <Gold.Chemscore.DEClash>
0.0506

> <Gold.Chemscore.DEInternal>
2.6020

> <Gold.Chemscore.Rot>
1.3294

> <Gold.Chemscore.Internal.Correction>
   9.000000E+99

> <Gold.Chemscore.Hbond.Weighted>
-0.0000

> <Gold.Chemscore.Metal.Weighted>
-0.0000

> <Gold.Chemscore.Lipo.Weighted>
-14.4087

> <Gold.Chemscore.Internal_Hbond.Weighted>
0.0000

> <Gold.Chemscore.DEClash.Weighted>
0.0506

> <Gold.Chemscore.DEInternal.Weighted>
2.6020

> <Gold.Chemscore.Rot.Weighted>
3.4032

> <Gold.Chemscore.Internal.Correction.Weighted>
   9.000000E+99

> <Gold.Protein.RotatedTorsions>
[ 6907 6896 6895 6894 ] final   54.45 input  -60.11 | X-H torsion
[ 7974 7965 7964 7962 ] final  155.80 input  175.53 | X-H torsion
[ 8008 7997 7996 7995 ] final  164.19 input   59.86 | X-H torsion
[ 10167 10162 10161 10158 ] final  151.54 input  -65.29 | X-H torsion
[ 10718 10713 10712 10709 ] final   22.60 input   66.30 | X-H torsion
[ 10763 10752 10751 10750 ] final   65.90 input  -60.55 | X-H torsion
[ 11005 11000 10999 10996 ] final -111.09 input  -57.11 | X-H torsion

> <Gold.Protein.ActiveResidues>
 VAL166  LYS551  ARG553  GLY616  TRP617  ASP618  TYR619  PRO620  LYS621  CYS622 
 ASP623  PHE694  ASN695  SER759  ASP760  ASP761  ALA762  ILE779  LEU786  VAL792 
 PHE793  MET794  SER795  GLU796  ALA797  LYS798  CYS799  TRP800  GLU811  SER814 

> <Gold.Protein.RotatedAtoms>
  152.3440  134.7096  160.0255 H   0  0  0  0  0  0  0  0  0  0  0  0  # atno 6907 bound_to 6896
  151.7472  133.3320  159.3389 H   0  0  0  0  0  0  0  0  0  0  0  0  # atno 6908 bound_to 6896
  150.7497  134.6158  159.6154 H   0  0  0  0  0  0  0  0  0  0  0  0  # atno 6909 bound_to 6896
  144.8002  139.7118  143.6185 H   0  0  0  0  0  0  0  0  0  0  0  0  # atno 7974 bound_to 7965
  156.1899  140.1703  156.8112 H   0  0  0  0  0  0  0  0  0  0  0  0  # atno 8008 bound_to 7997
  154.5459  140.0727  156.8619 H   0  0  0  0  0  0  0  0  0  0  0  0  # atno 8009 bound_to 7997
  155.3124  140.3368  155.4246 H   0  0  0  0  0  0  0  0  0  0  0  0  # atno 8010 bound_to 7997
  139.4840  144.5432  151.7528 H   0  0  0  0  0  0  0  0  0  0  0  0  # atno 10167 bound_to 10162
  157.1546  130.6690  149.6023 H   0  0  0  0  0  0  0  0  0  0  0  0  # atno 10718 bound_to 10713
  153.0116  135.5340  154.6740 H   0  0  0  0  0  0  0  0  0  0  0  0  # atno 10763 bound_to 10752
  154.5917  135.2859  155.0631 H   0  0  0  0  0  0  0  0  0  0  0  0  # atno 10764 bound_to 10752
  154.1721  135.6530  153.5064 H   0  0  0  0  0  0  0  0  0  0  0  0  # atno 10765 bound_to 10752
  141.0754  133.9310  157.2400 H   0  0  0  0  0  0  0  0  0  0  0  0  # atno 11005 bound_to 11000
  146.2281  139.5761  142.9573 LP  0  0  0  0  0  0  0  0  0  0  0  0  # atno 17320 bound_to 7965
  145.5572  141.0408  143.2246 LP  0  0  0  0  0  0  0  0  0  0  0  0  # atno 17321 bound_to 7965
  140.4975  144.1219  150.5963 LP  0  0  0  0  0  0  0  0  0  0  0  0  # atno 17342 bound_to 10162
  140.4101  143.2661  151.9844 LP  0  0  0  0  0  0  0  0  0  0  0  0  # atno 17343 bound_to 10162
  155.9764  130.4733  150.6528 LP  0  0  0  0  0  0  0  0  0  0  0  0  # atno 17370 bound_to 10713
  157.4189  131.0834  151.1150 LP  0  0  0  0  0  0  0  0  0  0  0  0  # atno 17371 bound_to 10713
  139.9566  135.0164  156.9146 LP  0  0  0  0  0  0  0  0  0  0  0  0  # atno 17394 bound_to 11000
  140.5584  134.0559  155.7391 LP  0  0  0  0  0  0  0  0  0  0  0  0  # atno 17395 bound_to 11000

$$$$
