AV-unprocessed.smi:2083|AV-procd|sdf|8506|dock5
  -GOLD-   2272011223D 1   1.00000     0.00000
 Structure written by MMmdl.
 44 45  0  0  0  0  0  0  0  0  3 V2000
  147.7757  132.7576  161.6830 C   0  0  0  0  0  0  0  0  0  0  0  0
  147.8220  132.4500  160.2256 C   0  0  0  0  0  0  0  0  0  0  0  0
  148.5537  132.9600  159.1907 C   0  0  0  0  0  0  0  0  0  0  0  0
  148.0923  132.2149  158.0729 C   0  0  0  0  0  0  0  0  0  0  0  0
  148.6170  132.4580  156.7762 N   0  0  0  0  0  0  0  0  0  0  0  0
  149.8208  132.9508  156.4318 C   0  0  0  0  0  0  0  0  0  0  0  0
  150.6370  133.2731  157.3035 O   0  0  0  0  0  0  0  0  0  0  0  0
  149.9762  133.0270  155.0819 N   0  5  0  0  0  0  0  0  0  0  0  0
  149.3540  132.1151  154.1235 C   0  0  0  0  0  0  0  0  0  0  0  0
  148.3564  132.8902  153.2039 C   0  0  2  0  0  0  0  0  0  0  0  0
  147.5663  133.9934  153.9477 C   0  0  0  0  0  0  0  0  0  0  0  0
  147.4128  132.0366  152.4032 N   0  3  1  0  0  0  0  0  0  0  0  0
  146.8548  130.8603  153.1283 C   0  0  0  0  0  0  0  0  0  0  0  0
  146.2259  129.8650  152.1412 C   0  0  0  0  0  0  0  0  0  0  0  0
  145.1518  130.5461  151.2822 C   0  0  0  0  0  0  0  0  0  0  0  0
  145.7370  131.7754  150.5649 C   0  0  1  0  0  0  0  0  0  0  0  0
  144.6758  132.4852  149.7123 C   0  0  0  0  0  0  0  0  0  0  0  0
  146.3747  132.7366  151.5876 C   0  0  0  0  0  0  0  0  0  0  0  0
  147.1652  131.3261  158.3985 N   0  0  0  0  0  0  0  0  0  0  0  0
  146.9876  131.4721  159.7795 O   0  0  0  0  0  0  0  0  0  0  0  0
  148.3056  133.6847  161.9025 H   0  0  0  0  0  0  0  0  0  0  0  0
  148.2387  131.9578  162.2607 H   0  0  0  0  0  0  0  0  0  0  0  0
  146.7459  132.8698  162.0227 H   0  0  0  0  0  0  0  0  0  0  0  0
  149.2969  133.7423  159.2280 H   0  0  0  0  0  0  0  0  0  0  0  0
  148.0076  132.2187  156.0085 H   0  0  0  0  0  0  0  0  0  0  0  0
  150.1105  131.6384  153.4999 H   0  0  0  0  0  0  0  0  0  0  0  0
  148.8213  131.2994  154.6137 H   0  0  0  0  0  0  0  0  0  0  0  0
  148.9579  133.4193  152.4626 H   0  0  0  0  0  0  0  0  0  0  0  0
  148.2238  134.7581  154.3653 H   0  0  0  0  0  0  0  0  0  0  0  0
  146.9626  133.6029  154.7681 H   0  0  0  0  0  0  0  0  0  0  0  0
  146.8900  134.5079  153.2643 H   0  0  0  0  0  0  0  0  0  0  0  0
  147.6430  130.3558  153.6882 H   0  0  0  0  0  0  0  0  0  0  0  0
  146.1062  131.1832  153.8530 H   0  0  0  0  0  0  0  0  0  0  0  0
  147.0016  129.4489  151.4970 H   0  0  0  0  0  0  0  0  0  0  0  0
  145.7917  129.0252  152.6846 H   0  0  0  0  0  0  0  0  0  0  0  0
  144.7550  129.8366  150.5553 H   0  0  0  0  0  0  0  0  0  0  0  0
  144.3148  130.8474  151.9137 H   0  0  0  0  0  0  0  0  0  0  0  0
  146.5229  131.4312  149.8908 H   0  0  0  0  0  0  0  0  0  0  0  0
  143.8586  132.8615  150.3285 H   0  0  0  0  0  0  0  0  0  0  0  0
  144.2498  131.8079  148.9719 H   0  0  0  0  0  0  0  0  0  0  0  0
  145.1050  133.3315  149.1752 H   0  0  0  0  0  0  0  0  0  0  0  0
  145.5981  133.1464  152.2356 H   0  0  0  0  0  0  0  0  0  0  0  0
  146.8176  133.5777  151.0554 H   0  0  0  0  0  0  0  0  0  0  0  0
  148.0230  131.6204  151.7150 H   0  0  0  0  0  0  0  0  0  0  0  0
  1  2  1  0  0  0  0
  1 21  1  0  0  0  0
  1 22  1  0  0  0  0
  1 23  1  0  0  0  0
  2 20  1  0  0  0  0
  2  3  2  0  0  0  0
  3  4  1  0  0  0  0
  3 24  1  0  0  0  0
  4  5  1  0  0  0  0
  4 19  2  0  0  0  0
  5  6  1  0  0  0  0
  5 25  1  0  0  0  0
  6  7  2  0  0  0  0
  6  8  1  0  0  0  0
  8  9  1  0  0  0  0
  9 10  1  0  0  0  0
  9 26  1  0  0  0  0
  9 27  1  0  0  0  0
 10 11  1  0  0  0  0
 10 12  1  0  0  0  0
 10 28  1  0  0  0  0
 11 29  1  0  0  0  0
 11 30  1  0  0  0  0
 11 31  1  0  0  0  0
 12 18  1  0  0  0  0
 12 13  1  0  0  0  0
 12 44  1  0  0  0  0
 13 14  1  0  0  0  0
 13 32  1  0  0  0  0
 13 33  1  0  0  0  0
 14 15  1  0  0  0  0
 14 34  1  0  0  0  0
 14 35  1  0  0  0  0
 15 16  1  0  0  0  0
 15 36  1  0  0  0  0
 15 37  1  0  0  0  0
 16 17  1  0  0  0  0
 16 18  1  0  0  0  0
 16 38  1  0  0  0  0
 17 39  1  0  0  0  0
 17 40  1  0  0  0  0
 17 41  1  0  0  0  0
 18 42  1  0  0  0  0
 18 43  1  0  0  0  0
 19 20  1  0  0  0  0
M  CHG  1   8  -1
M  CHG  1  12   1
M  END
> <s_m_source_file>
AV-unprocessed.smi

> <i_m_source_file_index>
2083

> <i_lp_mmshare_version>
43012

> <i_f3d_flags>
0

> <s_epik_input>
W0NIM11jMVtjSF1jKG5vMSlbTkhdQyg9TylbTkhdW0NIMl1bQ0BIXShbQ0gzXSlOMltDSDJdW0NIMl1bQ0gyXVtDQEBIXShbQ0gzXSlbQ0gyXTI=

> <s_epik_cmdline>
J2VwaWtfcHl0aG9uJywgJy1waCcsICc3LjAnLCAnLXRuJywgJzgnLCAnLW1hJywgJzIwMCcsICctbWV0YWxfYmluZGluZycsICctaW1hZScsICc8aW5maWxlLm1hZT4nLCAnLW9tYWUnLCAnPG91dGZpbGUubWFlPic=

> <r_epik_Ionization_Penalty>
6.76934

> <r_epik_Ionization_Penalty_Charging>
6.76934

> <r_epik_Ionization_Penalty_Neutral>
5.77849e-06

> <r_epik_State_Penalty>
6.79457

> <r_epik_Charging_Adjusted_Penalty>
13.5639

> <i_epik_Tot_Q>
0

> <i_epik_Tot_abs_Q>
2

> <r_epik_Metal_State_Penalty>
2.72837

> <b_epik_Metal_Only>
1

> <s_lp_Force_Field>
OPLS_2005

> <r_lp_Energy>
20.364

> <b_lp_Chiralities_Consistent>
1

> <s_lp_Variant>
AV-unprocessed.smi:2083-17

> <Gold.Version>
5.8.1

> <Gold.Id.Protein>
6NUR|6NUR_protein|mol2

> <Gold.PLP.Fitness>
36.1528

> <Gold.PLP.PLP>
-31.5951

> <Gold.PLP.part.hbond>
-2.0000

> <Gold.PLP.part.metal>
0.0000

> <Gold.PLP.part.buried>
-4.5080

> <Gold.PLP.part.nonpolar>
-25.7783

> <Gold.PLP.part.repulsive>
0.0423

> <Gold.PLP.ligand.clash>
0.0000

> <Gold.PLP.ligand.torsion>
0.8454

> <Gold.PLP.Chemscore.Hbond>
1.9920

> <Gold.PLP.Chemscore.CHOScore>
0.0000

> <Gold.PLP.Chemscore.Metal>
0.0000

> <Gold.Chemscore.Hbonds>
donor molecule, donor type, donor heavy atom, donor atom, acceptor molecule, acceptor atom, score
      L1  H    12    44       P1 10747  1.00
      P1  H  6896  6907       L1     7  0.93

> <Gold.PLP.Chemscore.Internal.Correction>
0.2724

> <Gold.Rescore>
     Score         DG    S(hbond)    S(metal)    S(lipo)     H(rot)  DE(clash)    DE(int)     intcor
     15.87     -18.07       1.96        0.00      84.80       1.52       0.01       2.19       ----

> <Gold.Chemscore.Fitness>
15.8707

> <Gold.Chemscore.DG>
-18.0680

> <Gold.Chemscore.ZeroCoef>
-5.4800

> <Gold.Chemscore.Hbond>
1.9627

> <Gold.Chemscore.Metal>
0.0000

> <Gold.Chemscore.Lipo>
84.7971

> <Gold.Chemscore.Internal_Hbond>
0.0000

> <Gold.Chemscore.DEClash>
0.0088

> <Gold.Chemscore.DEInternal>
2.1885

> <Gold.Chemscore.Rot>
1.5190

> <Gold.Chemscore.Internal.Correction>
   9.000000E+99

> <Gold.Chemscore.Hbonds>
donor molecule, donor type, donor heavy atom, donor atom, acceptor molecule, acceptor atom, score
      L1  H    12    44       P1 10747  1.00
      P1  H  6896  6907       L1     7  0.89

> <Gold.Chemscore.Hbond.Weighted>
-6.5554

> <Gold.Chemscore.Metal.Weighted>
-0.0000

> <Gold.Chemscore.Lipo.Weighted>
-9.9213

> <Gold.Chemscore.Internal_Hbond.Weighted>
0.0000

> <Gold.Chemscore.DEClash.Weighted>
0.0088

> <Gold.Chemscore.DEInternal.Weighted>
2.1885

> <Gold.Chemscore.Rot.Weighted>
3.8886

> <Gold.Chemscore.Internal.Correction.Weighted>
   9.000000E+99

> <Gold.Protein.RotatedTorsions>
[ 6907 6896 6895 6894 ] final -132.07 input  -60.11 | X-H torsion
[ 7974 7965 7964 7962 ] final -171.36 input  175.53 | X-H torsion
[ 8008 7997 7996 7995 ] final  165.42 input   59.86 | X-H torsion
[ 10167 10162 10161 10158 ] final  -60.72 input  -65.29 | X-H torsion
[ 10718 10713 10712 10709 ] final  -70.84 input   66.30 | X-H torsion
[ 10763 10752 10751 10750 ] final -174.52 input  -60.55 | X-H torsion
[ 11005 11000 10999 10996 ] final -111.21 input  -57.11 | X-H torsion

> <Gold.Protein.ActiveResidues>
 VAL166  LYS551  ARG553  GLY616  TRP617  ASP618  TYR619  PRO620  LYS621  CYS622 
 ASP623  PHE694  ASN695  SER759  ASP760  ASP761  ALA762  ILE779  LEU786  VAL792 
 PHE793  MET794  SER795  GLU796  ALA797  LYS798  CYS799  TRP800  GLU811  SER814 

> <Gold.Protein.RotatedAtoms>
  150.9582  133.6474  159.2758 H   0  0  0  0  0  0  0  0  0  0  0  0  # atno 6907 bound_to 6896
  151.3806  135.0938  159.9504 H   0  0  0  0  0  0  0  0  0  0  0  0  # atno 6908 bound_to 6896
  152.5137  133.9118  159.7546 H   0  0  0  0  0  0  0  0  0  0  0  0  # atno 6909 bound_to 6896
  144.7158  140.1933  143.6346 H   0  0  0  0  0  0  0  0  0  0  0  0  # atno 7974 bound_to 7965
  156.1802  140.1670  156.8289 H   0  0  0  0  0  0  0  0  0  0  0  0  # atno 8008 bound_to 7997
  154.5351  140.0748  156.8447 H   0  0  0  0  0  0  0  0  0  0  0  0  # atno 8009 bound_to 7997
  155.3327  140.3380  155.4241 H   0  0  0  0  0  0  0  0  0  0  0  0  # atno 8010 bound_to 7997
  140.6053  143.2372  151.5835 H   0  0  0  0  0  0  0  0  0  0  0  0  # atno 10167 bound_to 10162
  156.0389  130.4339  150.2355 H   0  0  0  0  0  0  0  0  0  0  0  0  # atno 10718 bound_to 10713
  154.5953  135.2849  155.0592 H   0  0  0  0  0  0  0  0  0  0  0  0  # atno 10763 bound_to 10752
  154.1878  135.6446  153.5055 H   0  0  0  0  0  0  0  0  0  0  0  0  # atno 10764 bound_to 10752
  153.0136  135.5439  154.6653 H   0  0  0  0  0  0  0  0  0  0  0  0  # atno 10765 bound_to 10752
  141.0748  133.9320  157.2413 H   0  0  0  0  0  0  0  0  0  0  0  0  # atno 11005 bound_to 11000
  145.8748  139.2291  143.1640 LP  0  0  0  0  0  0  0  0  0  0  0  0  # atno 17320 bound_to 7965
  146.0051  140.8486  142.9999 LP  0  0  0  0  0  0  0  0  0  0  0  0  # atno 17321 bound_to 7965
  139.5320  144.2888  152.1169 LP  0  0  0  0  0  0  0  0  0  0  0  0  # atno 17342 bound_to 10162
  140.2076  144.4595  150.6401 LP  0  0  0  0  0  0  0  0  0  0  0  0  # atno 17343 bound_to 10162
  157.0452  131.0047  151.3271 LP  0  0  0  0  0  0  0  0  0  0  0  0  # atno 17370 bound_to 10713
  157.5180  130.7980  149.7778 LP  0  0  0  0  0  0  0  0  0  0  0  0  # atno 17371 bound_to 10713
  139.9560  135.0165  156.9129 LP  0  0  0  0  0  0  0  0  0  0  0  0  # atno 17394 bound_to 11000
  140.5597  134.0546  155.7395 LP  0  0  0  0  0  0  0  0  0  0  0  0  # atno 17395 bound_to 11000

$$$$
