AV-unprocessed.smi:1945|AV-procd|sdf|7860|dock3
  -GOLD-   2272010 13D 1   1.00000     0.00000
 Structure written by MMmdl.
 47 48  0  0  0  0  0  0  0  0  1 V2000
  143.5629  132.3798  149.6603 C   0  0  0  0  0  0  0  0  0  0  0  0
  144.6244  133.0806  150.4554 C   0  0  0  0  0  0  0  0  0  0  0  0
  144.7927  134.4819  150.6516 C   0  0  0  0  0  0  0  0  0  0  0  0
  145.9056  134.5443  151.4454 C   0  0  0  0  0  0  0  0  0  0  0  0
  146.5328  135.6410  151.9486 N   0  0  0  0  0  0  0  0  0  0  0  0
  145.9901  136.7725  152.4305 C   0  0  0  0  0  0  0  0  0  0  0  0
  144.7842  136.9991  152.5313 O   0  0  0  0  0  0  0  0  0  0  0  0
  146.9399  137.6490  152.7881 N   0  0  0  0  0  0  0  0  0  0  0  0
  146.6927  139.0011  153.2787 C   0  0  0  0  0  0  0  0  0  0  0  0
  147.9931  139.6684  153.7489 C   0  0  0  0  0  0  0  0  0  0  0  0
  148.1898  139.3807  155.1252 O   0  0  0  0  0  0  0  0  0  0  0  0
  149.5294  139.0747  155.4855 C   0  0  1  0  0  0  0  0  0  0  0  0
  150.0110  137.8629  154.6590 C   0  0  0  0  0  0  0  0  0  0  0  0
  151.5012  137.5744  154.8908 C   0  0  0  0  0  0  0  0  0  0  0  0
  152.3549  138.8139  154.5900 C   0  0  0  0  0  0  0  0  0  0  0  0
  151.8863  140.0197  155.4181 C   0  0  0  0  0  0  0  0  0  0  0  0
  150.3916  140.3232  155.1913 C   0  0  2  0  0  0  0  0  0  0  0  0
  149.9496  141.5326  156.0310 C   0  0  0  0  0  0  0  0  0  0  0  0
  146.3459  133.2618  151.6945 N   0  0  0  0  0  0  0  0  0  0  0  0
  147.4770  132.7950  152.4730 C   0  0  0  0  0  0  0  0  0  0  0  0
  145.5514  132.3613  151.0776 N   0  0  0  0  0  0  0  0  0  0  0  0
  142.8658  133.0925  149.2195 H   0  0  0  0  0  0  0  0  0  0  0  0
  142.9879  131.6984  150.2874 H   0  0  0  0  0  0  0  0  0  0  0  0
  144.0006  131.7987  148.8483 H   0  0  0  0  0  0  0  0  0  0  0  0
  144.1871  135.2874  150.2647 H   0  0  0  0  0  0  0  0  0  0  0  0
  147.5412  135.6066  151.9270 H   0  0  0  0  0  0  0  0  0  0  0  0
  147.9055  137.3763  152.6778 H   0  0  0  0  0  0  0  0  0  0  0  0
  146.1963  139.6109  152.5218 H   0  0  0  0  0  0  0  0  0  0  0  0
  145.9999  138.9262  154.1170 H   0  0  0  0  0  0  0  0  0  0  0  0
  148.8378  139.2793  153.1792 H   0  0  0  0  0  0  0  0  0  0  0  0
  147.9463  140.7421  153.5652 H   0  0  0  0  0  0  0  0  0  0  0  0
  149.5931  138.8478  156.5516 H   0  0  0  0  0  0  0  0  0  0  0  0
  149.4324  136.9732  154.9054 H   0  0  0  0  0  0  0  0  0  0  0  0
  149.8404  138.0552  153.5988 H   0  0  0  0  0  0  0  0  0  0  0  0
  151.6576  137.2622  155.9240 H   0  0  0  0  0  0  0  0  0  0  0  0
  151.8204  136.7418  154.2632 H   0  0  0  0  0  0  0  0  0  0  0  0
  153.4039  138.6030  154.7996 H   0  0  0  0  0  0  0  0  0  0  0  0
  152.2932  139.0526  153.5276 H   0  0  0  0  0  0  0  0  0  0  0  0
  152.0659  139.8239  156.4763 H   0  0  0  0  0  0  0  0  0  0  0  0
  152.4871  140.8925  155.1602 H   0  0  0  0  0  0  0  0  0  0  0  0
  150.2599  140.5850  154.1401 H   0  0  0  0  0  0  0  0  0  0  0  0
  150.0516  141.3327  157.0981 H   0  0  0  0  0  0  0  0  0  0  0  0
  148.9078  141.7909  155.8391 H   0  0  0  0  0  0  0  0  0  0  0  0
  150.5508  142.4118  155.7979 H   0  0  0  0  0  0  0  0  0  0  0  0
  147.9125  133.6121  153.0481 H   0  0  0  0  0  0  0  0  0  0  0  0
  148.2368  132.3872  151.8058 H   0  0  0  0  0  0  0  0  0  0  0  0
  147.1536  132.0154  153.1636 H   0  0  0  0  0  0  0  0  0  0  0  0
  1  2  1  0  0  0  0
  1 22  1  0  0  0  0
  1 23  1  0  0  0  0
  1 24  1  0  0  0  0
  2 21  2  0  0  0  0
  2  3  1  0  0  0  0
  3  4  2  0  0  0  0
  3 25  1  0  0  0  0
  4  5  1  0  0  0  0
  4 19  1  0  0  0  0
  5  6  1  0  0  0  0
  5 26  1  0  0  0  0
  6  7  2  0  0  0  0
  6  8  1  0  0  0  0
  8  9  1  0  0  0  0
  8 27  1  0  0  0  0
  9 10  1  0  0  0  0
  9 28  1  0  0  0  0
  9 29  1  0  0  0  0
 10 11  1  0  0  0  0
 10 30  1  0  0  0  0
 10 31  1  0  0  0  0
 11 12  1  0  0  0  0
 12 17  1  0  0  0  0
 12 13  1  0  0  0  0
 12 32  1  0  0  0  0
 13 14  1  0  0  0  0
 13 33  1  0  0  0  0
 13 34  1  0  0  0  0
 14 15  1  0  0  0  0
 14 35  1  0  0  0  0
 14 36  1  0  0  0  0
 15 16  1  0  0  0  0
 15 37  1  0  0  0  0
 15 38  1  0  0  0  0
 16 17  1  0  0  0  0
 16 39  1  0  0  0  0
 16 40  1  0  0  0  0
 17 18  1  0  0  0  0
 17 41  1  0  0  0  0
 18 42  1  0  0  0  0
 18 43  1  0  0  0  0
 18 44  1  0  0  0  0
 19 20  1  0  0  0  0
 19 21  1  0  0  0  0
 20 45  1  0  0  0  0
 20 46  1  0  0  0  0
 20 47  1  0  0  0  0
M  END
> <s_m_source_file>
AV-unprocessed.smi

> <i_m_source_file_index>
1945

> <i_lp_mmshare_version>
43012

> <i_f3d_flags>
0

> <s_epik_input>
W0NIM11jMVtjSF1jKG4objEpW0NIM10pW05IXUMoPU8pW05IXVtDSDJdW0NIMl1PW0NAQEhdMltDSDJdW0NIMl1bQ0gyXVtDSDJdW0NASF0yW0NIM10=

> <s_epik_cmdline>
J2VwaWtfcHl0aG9uJywgJy1waCcsICc3LjAnLCAnLXRuJywgJzgnLCAnLW1hJywgJzIwMCcsICctbWV0YWxfYmluZGluZycsICctaW1hZScsICc8aW5maWxlLm1hZT4nLCAnLW9tYWUnLCAnPG91dGZpbGUubWFlPic=

> <r_lp_tautomer_probability>
1

> <r_epik_Ionization_Penalty>
9.47735e-05

> <r_epik_Ionization_Penalty_Charging>
0

> <r_epik_Ionization_Penalty_Neutral>
9.47735e-05

> <r_epik_State_Penalty>
-0

> <r_epik_Charging_Adjusted_Penalty>
0

> <i_epik_Tot_Q>
0

> <i_epik_Tot_abs_Q>
0

> <r_epik_Metal_State_Penalty>
-0

> <b_epik_Metal_Only>
0

> <s_lp_Force_Field>
OPLS_2005

> <r_lp_Energy>
11.6834

> <b_lp_Chiralities_Consistent>
1

> <s_lp_Variant>
AV-unprocessed.smi:1945-4

> <Gold.Version>
5.8.1

> <Gold.Id.Protein>
6NUR|6NUR_protein|mol2

> <Gold.PLP.Fitness>
41.0507

> <Gold.PLP.PLP>
-36.8649

> <Gold.PLP.part.hbond>
-1.8989

> <Gold.PLP.part.metal>
0.0000

> <Gold.PLP.part.buried>
-2.2535

> <Gold.PLP.part.nonpolar>
-34.3473

> <Gold.PLP.part.repulsive>
0.4625

> <Gold.PLP.ligand.clash>
0.0000

> <Gold.PLP.ligand.torsion>
0.7986

> <Gold.PLP.Chemscore.Hbond>
1.8800

> <Gold.PLP.Chemscore.CHOScore>
0.0000

> <Gold.PLP.Chemscore.Metal>
0.0000

> <Gold.Chemscore.Hbonds>
donor molecule, donor type, donor heavy atom, donor atom, acceptor molecule, acceptor atom, score
      L1  H     5    26       P1  7948  0.96
      L1  H     8    27       P1  7948  0.86

> <Gold.PLP.Chemscore.Internal.Correction>
0.1429

> <Gold.Rescore>
     Score         DG    S(hbond)    S(metal)    S(lipo)     H(rot)  DE(clash)    DE(int)     intcor
     17.09     -17.97       1.86        0.00      89.31       1.63       0.14       0.75       ----

> <Gold.Chemscore.Fitness>
17.0861

> <Gold.Chemscore.DG>
-17.9727

> <Gold.Chemscore.ZeroCoef>
-5.4800

> <Gold.Chemscore.Hbond>
1.8622

> <Gold.Chemscore.Metal>
0.0000

> <Gold.Chemscore.Lipo>
89.3143

> <Gold.Chemscore.Internal_Hbond>
0.0000

> <Gold.Chemscore.DEClash>
0.1393

> <Gold.Chemscore.DEInternal>
0.7473

> <Gold.Chemscore.Rot>
1.6316

> <Gold.Chemscore.Internal.Correction>
   9.000000E+99

> <Gold.Chemscore.Hbonds>
donor molecule, donor type, donor heavy atom, donor atom, acceptor molecule, acceptor atom, score
      L1  H     5    26       P1  7948  0.88
      L1  H     8    27       P1  7948  0.85

> <Gold.Chemscore.Hbond.Weighted>
-6.2197

> <Gold.Chemscore.Metal.Weighted>
-0.0000

> <Gold.Chemscore.Lipo.Weighted>
-10.4498

> <Gold.Chemscore.Internal_Hbond.Weighted>
0.0000

> <Gold.Chemscore.DEClash.Weighted>
0.1393

> <Gold.Chemscore.DEInternal.Weighted>
0.7473

> <Gold.Chemscore.Rot.Weighted>
4.1768

> <Gold.Chemscore.Internal.Correction.Weighted>
   9.000000E+99

> <Gold.Protein.RotatedTorsions>
[ 6907 6896 6895 6894 ] final   -6.04 input  -60.11 | X-H torsion
[ 7974 7965 7964 7962 ] final  -88.09 input  175.53 | X-H torsion
[ 8008 7997 7996 7995 ] final   56.59 input   59.86 | X-H torsion
[ 10167 10162 10161 10158 ] final  -90.23 input  -65.29 | X-H torsion
[ 10718 10713 10712 10709 ] final  102.46 input   66.30 | X-H torsion
[ 10763 10752 10751 10750 ] final   79.76 input  -60.55 | X-H torsion
[ 11005 11000 10999 10996 ] final  125.22 input  -57.11 | X-H torsion

> <Gold.Protein.ActiveResidues>
 VAL166  LYS551  ARG553  GLY616  TRP617  ASP618  TYR619  PRO620  LYS621  CYS622 
 ASP623  PHE694  ASN695  SER759  ASP760  ASP761  ALA762  ILE779  LEU786  VAL792 
 PHE793  MET794  SER795  GLU796  ALA797  LYS798  CYS799  TRP800  GLU811  SER814 

> <Gold.Protein.RotatedAtoms>
  151.4719  135.1046  159.9753 H   0  0  0  0  0  0  0  0  0  0  0  0  # atno 6907 bound_to 6896
  152.4813  133.8258  159.7088 H   0  0  0  0  0  0  0  0  0  0  0  0  # atno 6908 bound_to 6896
  150.8887  133.7211  159.2937 H   0  0  0  0  0  0  0  0  0  0  0  0  # atno 6909 bound_to 6896
  145.4578  140.9561  143.1986 H   0  0  0  0  0  0  0  0  0  0  0  0  # atno 7974 bound_to 7965
  155.5200  140.3479  155.4405 H   0  0  0  0  0  0  0  0  0  0  0  0  # atno 8008 bound_to 7997
  156.0791  140.1382  156.9762 H   0  0  0  0  0  0  0  0  0  0  0  0  # atno 8009 bound_to 7997
  154.4570  140.0950  156.6760 H   0  0  0  0  0  0  0  0  0  0  0  0  # atno 8010 bound_to 7997
  140.3569  143.2862  151.9660 H   0  0  0  0  0  0  0  0  0  0  0  0  # atno 10167 bound_to 10162
  157.6801  131.0753  150.5407 H   0  0  0  0  0  0  0  0  0  0  0  0  # atno 10718 bound_to 10713
  153.0978  135.4828  154.8811 H   0  0  0  0  0  0  0  0  0  0  0  0  # atno 10763 bound_to 10752
  154.7345  135.3067  154.8838 H   0  0  0  0  0  0  0  0  0  0  0  0  # atno 10764 bound_to 10752
  153.9464  135.6828  153.4797 H   0  0  0  0  0  0  0  0  0  0  0  0  # atno 10765 bound_to 10752
  139.9396  134.9637  156.8526 H   0  0  0  0  0  0  0  0  0  0  0  0  # atno 11005 bound_to 11000
  144.8021  139.6120  143.7067 LP  0  0  0  0  0  0  0  0  0  0  0  0  # atno 17320 bound_to 7965
  146.2468  139.6115  142.9454 LP  0  0  0  0  0  0  0  0  0  0  0  0  # atno 17321 bound_to 7965
  139.4819  144.6027  151.7577 LP  0  0  0  0  0  0  0  0  0  0  0  0  # atno 17342 bound_to 10162
  140.5164  144.0946  150.6010 LP  0  0  0  0  0  0  0  0  0  0  0  0  # atno 17343 bound_to 10162
  156.5714  130.4281  149.6018 LP  0  0  0  0  0  0  0  0  0  0  0  0  # atno 17370 bound_to 10713
  156.2737  130.7032  151.1836 LP  0  0  0  0  0  0  0  0  0  0  0  0  # atno 17371 bound_to 10713
  140.5986  134.0193  155.7528 LP  0  0  0  0  0  0  0  0  0  0  0  0  # atno 17394 bound_to 11000
  141.1025  133.9746  157.3054 LP  0  0  0  0  0  0  0  0  0  0  0  0  # atno 17395 bound_to 11000

$$$$
