AV-unprocessed.smi:1313|AV-procd|sdf|5451|dock9
  -GOLD-   22720 5 23D 1   1.00000     0.00000
 Structure written by MMmdl.
 37 38  0  0  0  0  0  0  0  0  1 V2000
  148.7878  140.0411  153.7767 C   0  0  0  0  0  0  0  0  0  0  0  0
  149.7306  139.7255  154.9175 C   0  0  0  0  0  0  0  0  0  0  0  0
  149.0949  139.2236  156.0408 N   0  0  0  0  0  0  0  0  0  0  0  0
  149.8747  138.9084  157.1397 C   0  0  0  0  0  0  0  0  0  0  0  0
  149.0983  138.3679  158.3281 C   0  0  0  0  0  0  0  0  0  0  0  0
  151.2211  139.0807  157.1184 C   0  0  0  0  0  0  0  0  0  0  0  0
  152.1160  138.7443  158.3096 C   0  0  0  0  0  0  0  0  0  0  0  0
  153.0155  139.8847  158.7896 C   0  0  0  0  0  0  0  0  0  0  0  0
  154.2394  139.7652  158.7401 O   0  0  0  0  0  0  0  0  0  0  0  0
  152.3980  140.9791  159.2599 N   0  0  0  0  0  0  0  0  0  0  0  0
  153.0701  142.1596  159.7960 C   0  0  0  0  0  0  0  0  0  0  0  0
  152.5895  142.4581  161.2294 C   0  0  0  0  0  0  0  0  0  0  0  0
  152.2474  143.9489  161.2607 C   0  0  0  0  0  0  0  0  0  0  0  0
  151.8211  144.2685  159.8316 C   0  0  0  0  0  0  0  0  0  0  0  0
  152.7516  143.4191  158.9659 C   0  0  0  0  0  0  0  0  0  0  0  0
  151.8452  139.6137  155.8840 C   0  0  0  0  0  0  0  0  0  0  0  0
  153.0610  139.7792  155.7959 O   0  0  0  0  0  0  0  0  0  0  0  0
  151.0080  139.9250  154.8002 N   0  0  0  0  0  0  0  0  0  0  0  0
  148.0973  139.0785  156.0984 H   0  0  0  0  0  0  0  0  0  0  0  0
  149.3312  140.4464  152.9222 H   0  0  0  0  0  0  0  0  0  0  0  0
  148.0459  140.7767  154.0885 H   0  0  0  0  0  0  0  0  0  0  0  0
  148.2679  139.1389  153.4531 H   0  0  0  0  0  0  0  0  0  0  0  0
  149.2372  139.0085  159.1990 H   0  0  0  0  0  0  0  0  0  0  0  0
  149.4365  137.3627  158.5798 H   0  0  0  0  0  0  0  0  0  0  0  0
  148.0291  138.3163  158.1192 H   0  0  0  0  0  0  0  0  0  0  0  0
  152.7341  137.8856  158.0446 H   0  0  0  0  0  0  0  0  0  0  0  0
  151.5209  138.4006  159.1560 H   0  0  0  0  0  0  0  0  0  0  0  0
  151.3884  140.9904  159.2601 H   0  0  0  0  0  0  0  0  0  0  0  0
  154.1490  141.9928  159.8040 H   0  0  0  0  0  0  0  0  0  0  0  0
  151.6914  141.8839  161.4630 H   0  0  0  0  0  0  0  0  0  0  0  0
  153.3394  142.1979  161.9770 H   0  0  0  0  0  0  0  0  0  0  0  0
  151.4761  144.1878  161.9935 H   0  0  0  0  0  0  0  0  0  0  0  0
  153.1379  144.5254  161.5146 H   0  0  0  0  0  0  0  0  0  0  0  0
  150.7876  143.9554  159.6779 H   0  0  0  0  0  0  0  0  0  0  0  0
  151.8861  145.3320  159.6000 H   0  0  0  0  0  0  0  0  0  0  0  0
  153.6753  143.9704  158.7846 H   0  0  0  0  0  0  0  0  0  0  0  0
  152.3151  143.2006  157.9903 H   0  0  0  0  0  0  0  0  0  0  0  0
  1 20  1  0  0  0  0
  1 21  1  0  0  0  0
  1 22  1  0  0  0  0
  1  2  1  0  0  0  0
  2  3  1  0  0  0  0
  2 18  2  0  0  0  0
  3  4  1  0  0  0  0
  3 19  1  0  0  0  0
  4  6  2  0  0  0  0
  4  5  1  0  0  0  0
  5 23  1  0  0  0  0
  5 24  1  0  0  0  0
  5 25  1  0  0  0  0
  6 16  1  0  0  0  0
  6  7  1  0  0  0  0
  7  8  1  0  0  0  0
  7 26  1  0  0  0  0
  7 27  1  0  0  0  0
  8  9  2  0  0  0  0
  8 10  1  0  0  0  0
 10 11  1  0  0  0  0
 10 28  1  0  0  0  0
 11 15  1  0  0  0  0
 11 12  1  0  0  0  0
 11 29  1  0  0  0  0
 12 13  1  0  0  0  0
 12 30  1  0  0  0  0
 12 31  1  0  0  0  0
 13 14  1  0  0  0  0
 13 32  1  0  0  0  0
 13 33  1  0  0  0  0
 14 15  1  0  0  0  0
 14 34  1  0  0  0  0
 14 35  1  0  0  0  0
 15 36  1  0  0  0  0
 15 37  1  0  0  0  0
 16 17  2  0  0  0  0
 16 18  1  0  0  0  0
M  END
> <s_m_source_file>
AV-unprocessed.smi

> <i_m_source_file_index>
1313

> <i_lp_mmshare_version>
43012

> <i_f3d_flags>
0

> <s_epik_input>
W0NIM11jMW5jKFtDSDNdKWMoYyg9TylbbkhdMSlbQ0gyXUMoPU8pW05IXVtDSF0yW0NIMl1bQ0gyXVtDSDJdW0NIMl0y

> <s_epik_cmdline>
J2VwaWtfcHl0aG9uJywgJy1waCcsICc3LjAnLCAnLXRuJywgJzgnLCAnLW1hJywgJzIwMCcsICctbWV0YWxfYmluZGluZycsICctaW1hZScsICc8aW5maWxlLm1hZT4nLCAnLW9tYWUnLCAnPG91dGZpbGUubWFlPic=

> <r_lp_tautomer_probability>
0.156392

> <r_epik_Ionization_Penalty>
0.0140409

> <r_epik_Ionization_Penalty_Charging>
0.0139177

> <r_epik_Ionization_Penalty_Neutral>
0.000123229

> <r_epik_State_Penalty>
1.53066

> <r_epik_Charging_Adjusted_Penalty>
1.54458

> <i_epik_Tot_Q>
0

> <i_epik_Tot_abs_Q>
0

> <r_epik_Metal_State_Penalty>
1.70649

> <b_epik_Metal_Only>
0

> <s_lp_Force_Field>
OPLS_2005

> <r_lp_Energy>
23.2441

> <b_lp_Chiralities_Consistent>
1

> <s_lp_Variant>
AV-unprocessed.smi:1313-2

> <Gold.Version>
5.8.1

> <Gold.Id.Protein>
6NUR|6NUR_protein|mol2

> <Gold.PLP.Fitness>
41.9288

> <Gold.PLP.PLP>
-33.7374

> <Gold.PLP.part.hbond>
-2.8084

> <Gold.PLP.part.metal>
0.0000

> <Gold.PLP.part.buried>
-0.9175

> <Gold.PLP.part.nonpolar>
-29.8893

> <Gold.PLP.part.repulsive>
0.1959

> <Gold.PLP.ligand.clash>
0.0000

> <Gold.PLP.ligand.torsion>
0.0455

> <Gold.PLP.Chemscore.Hbond>
2.7600

> <Gold.PLP.Chemscore.CHOScore>
0.0000

> <Gold.PLP.Chemscore.Metal>
0.0000

> <Gold.Chemscore.Hbonds>
donor molecule, donor type, donor heavy atom, donor atom, acceptor molecule, acceptor atom, score
      P1  H  7989  7998       L1    18  1.00
      P1  H  7997  8008       L1    17  0.83
      P1  H  7997  8010       L1     9  0.77

> <Gold.PLP.Chemscore.Internal.Correction>
0.0023

> <Gold.Rescore>
     Score         DG    S(hbond)    S(metal)    S(lipo)     H(rot)  DE(clash)    DE(int)     intcor
     19.53     -19.71       2.63        0.00      79.61       1.51       0.18       0.00       ----

> <Gold.Chemscore.Fitness>
19.5260

> <Gold.Chemscore.DG>
-19.7088

> <Gold.Chemscore.ZeroCoef>
-5.4800

> <Gold.Chemscore.Hbond>
2.6310

> <Gold.Chemscore.Metal>
0.0000

> <Gold.Chemscore.Lipo>
79.6055

> <Gold.Chemscore.Internal_Hbond>
0.0000

> <Gold.Chemscore.DEClash>
0.1788

> <Gold.Chemscore.DEInternal>
0.0040

> <Gold.Chemscore.Rot>
1.5128

> <Gold.Chemscore.Internal.Correction>
   9.000000E+99

> <Gold.Chemscore.Hbonds>
donor molecule, donor type, donor heavy atom, donor atom, acceptor molecule, acceptor atom, score
      P1  H  7989  7998       L1    18  0.95
      P1  H  7997  8008       L1    17  0.79
      P1  H  7997  8010       L1     9  0.76

> <Gold.Chemscore.Hbond.Weighted>
-8.7877

> <Gold.Chemscore.Metal.Weighted>
-0.0000

> <Gold.Chemscore.Lipo.Weighted>
-9.3138

> <Gold.Chemscore.Internal_Hbond.Weighted>
0.0000

> <Gold.Chemscore.DEClash.Weighted>
0.1788

> <Gold.Chemscore.DEInternal.Weighted>
0.0040

> <Gold.Chemscore.Rot.Weighted>
3.8727

> <Gold.Chemscore.Internal.Correction.Weighted>
   9.000000E+99

> <Gold.Protein.RotatedTorsions>
[ 6907 6896 6895 6894 ] final  -58.63 input  -60.11 | X-H torsion
[ 7974 7965 7964 7962 ] final   42.54 input  175.53 | X-H torsion
[ 8008 7997 7996 7995 ] final  -13.85 input   59.86 | X-H torsion
[ 10167 10162 10161 10158 ] final  156.96 input  -65.29 | X-H torsion
[ 10718 10713 10712 10709 ] final  -36.97 input   66.30 | X-H torsion
[ 10763 10752 10751 10750 ] final  166.08 input  -60.55 | X-H torsion
[ 11005 11000 10999 10996 ] final   37.65 input  -57.11 | X-H torsion

> <Gold.Protein.ActiveResidues>
 VAL166  LYS551  ARG553  GLY616  TRP617  ASP618  TYR619  PRO620  LYS621  CYS622 
 ASP623  PHE694  ASN695  SER759  ASP760  ASP761  ALA762  ILE779  LEU786  VAL792 
 PHE793  MET794  SER795  GLU796  ALA797  LYS798  CYS799  TRP800  GLU811  SER814 

> <Gold.Protein.RotatedAtoms>
  150.7992  134.7074  159.6583 H   0  0  0  0  0  0  0  0  0  0  0  0  # atno 6907 bound_to 6896
  152.4107  134.6125  160.0039 H   0  0  0  0  0  0  0  0  0  0  0  0  # atno 6908 bound_to 6896
  151.6369  133.3291  159.3157 H   0  0  0  0  0  0  0  0  0  0  0  0  # atno 6909 bound_to 6896
  146.0731  139.5288  142.9585 H   0  0  0  0  0  0  0  0  0  0  0  0  # atno 7974 bound_to 7965
  154.5258  140.2239  155.8892 H   0  0  0  0  0  0  0  0  0  0  0  0  # atno 8008 bound_to 7997
  156.1712  140.3121  155.8941 H   0  0  0  0  0  0  0  0  0  0  0  0  # atno 8009 bound_to 7997
  155.3554  140.0458  157.3037 H   0  0  0  0  0  0  0  0  0  0  0  0  # atno 8010 bound_to 7997
  139.4822  144.4961  151.8237 H   0  0  0  0  0  0  0  0  0  0  0  0  # atno 10167 bound_to 10162
  156.3206  130.4265  149.7963 H   0  0  0  0  0  0  0  0  0  0  0  0  # atno 10718 bound_to 10713
  154.3336  135.2754  155.2459 H   0  0  0  0  0  0  0  0  0  0  0  0  # atno 10763 bound_to 10752
  154.4760  135.5871  153.6358 H   0  0  0  0  0  0  0  0  0  0  0  0  # atno 10764 bound_to 10752
  152.9864  135.6099  154.3531 H   0  0  0  0  0  0  0  0  0  0  0  0  # atno 10765 bound_to 10752
  140.2205  134.3647  155.8007 H   0  0  0  0  0  0  0  0  0  0  0  0  # atno 11005 bound_to 11000
  145.6355  141.0295  143.1840 LP  0  0  0  0  0  0  0  0  0  0  0  0  # atno 17320 bound_to 7965
  144.7244  139.7922  143.7370 LP  0  0  0  0  0  0  0  0  0  0  0  0  # atno 17321 bound_to 7965
  140.4450  144.1934  150.5893 LP  0  0  0  0  0  0  0  0  0  0  0  0  # atno 17342 bound_to 10162
  140.4644  143.2436  151.9175 LP  0  0  0  0  0  0  0  0  0  0  0  0  # atno 17343 bound_to 10162
  156.5273  130.8242  151.3225 LP  0  0  0  0  0  0  0  0  0  0  0  0  # atno 17370 bound_to 10713
  157.7411  130.9863  150.2422 LP  0  0  0  0  0  0  0  0  0  0  0  0  # atno 17371 bound_to 10713
  141.2223  133.7191  156.8567 LP  0  0  0  0  0  0  0  0  0  0  0  0  # atno 17394 bound_to 11000
  140.1855  134.9003  157.2999 LP  0  0  0  0  0  0  0  0  0  0  0  0  # atno 17395 bound_to 11000

$$$$
