AV-unprocessed.smi:2881|AV-procd|sdf|11064|dock7
  -GOLD-   2272015533D 1   1.00000     0.00000
 Structure written by MMmdl.
 40 42  0  0  0  0  0  0  0  0  1 V2000
  151.4183  145.3156  159.0300 C   0  0  0  0  0  0  0  0  0  0  0  0
  151.8485  143.9414  159.4509 C   0  0  0  0  0  0  0  0  0  0  0  0
  151.4914  142.6904  158.8677 C   0  0  0  0  0  0  0  0  0  0  0  0
  152.1536  141.7636  159.6234 C   0  0  0  0  0  0  0  0  0  0  0  0
  152.1994  140.2693  159.5383 C   0  0  0  0  0  0  0  0  0  0  0  0
  152.5504  139.7594  158.1356 C   0  0  0  0  0  0  0  0  0  0  0  0
  153.5832  139.1202  157.9296 O   0  0  0  0  0  0  0  0  0  0  0  0
  151.6705  140.0685  157.1710 N   0  0  0  0  0  0  0  0  0  0  0  0
  151.7874  139.7095  155.7561 C   0  0  1  0  0  0  0  0  0  0  0  0
  151.6820  138.1799  155.5306 C   0  0  1  0  0  0  0  0  0  0  0  0
  150.4463  137.5892  156.2430 C   0  0  0  0  0  0  0  0  0  0  0  0
  149.2798  138.1626  155.4187 C   0  0  0  0  0  0  0  0  0  0  0  0
  149.9990  138.9602  154.3098 C   0  0  2  0  0  0  0  0  0  0  0  0
  151.2349  138.0999  154.0745 C   0  0  0  0  0  0  0  0  0  0  0  0
  150.6400  140.2575  154.8557 C   0  0  1  0  0  0  0  0  0  0  0  0
  149.6390  141.2652  155.4657 C   0  0  0  0  0  0  0  0  0  0  0  0
  149.0367  142.0415  154.4515 O   0  0  0  0  0  0  0  0  0  0  0  0
  152.8401  142.4729  160.5836 N   0  0  0  0  0  0  0  0  0  0  0  0
  152.6626  143.8035  160.4867 N   0  0  0  0  0  0  0  0  0  0  0  0
  153.4303  142.0680  161.2963 H   0  0  0  0  0  0  0  0  0  0  0  0
  150.6607  145.2684  158.2476 H   0  0  0  0  0  0  0  0  0  0  0  0
  152.2612  145.8879  158.6417 H   0  0  0  0  0  0  0  0  0  0  0  0
  150.9950  145.8699  159.8679 H   0  0  0  0  0  0  0  0  0  0  0  0
  150.8481  142.5029  158.0206 H   0  0  0  0  0  0  0  0  0  0  0  0
  151.2322  139.8540  159.8235 H   0  0  0  0  0  0  0  0  0  0  0  0
  152.9272  139.8831  160.2532 H   0  0  0  0  0  0  0  0  0  0  0  0
  150.8515  140.5973  157.4340 H   0  0  0  0  0  0  0  0  0  0  0  0
  152.7443  140.0535  155.3582 H   0  0  0  0  0  0  0  0  0  0  0  0
  152.6052  137.6443  155.7531 H   0  0  0  0  0  0  0  0  0  0  0  0
  150.4556  136.5006  156.1755 H   0  0  0  0  0  0  0  0  0  0  0  0
  150.3811  137.8424  157.3008 H   0  0  0  0  0  0  0  0  0  0  0  0
  148.6897  137.3531  154.9876 H   0  0  0  0  0  0  0  0  0  0  0  0
  148.6041  138.7729  156.0166 H   0  0  0  0  0  0  0  0  0  0  0  0
  149.3852  139.1217  153.4231 H   0  0  0  0  0  0  0  0  0  0  0  0
  151.9484  138.5423  153.3770 H   0  0  0  0  0  0  0  0  0  0  0  0
  151.0019  137.0850  153.7468 H   0  0  0  0  0  0  0  0  0  0  0  0
  151.1032  140.7554  154.0011 H   0  0  0  0  0  0  0  0  0  0  0  0
  148.8467  140.7296  155.9892 H   0  0  0  0  0  0  0  0  0  0  0  0
  150.1091  141.9263  156.1934 H   0  0  0  0  0  0  0  0  0  0  0  0
  148.9914  142.9388  154.7444 H   0  0  0  0  0  0  0  0  0  0  0  0
  1 21  1  0  0  0  0
  1 22  1  0  0  0  0
  1 23  1  0  0  0  0
  1  2  1  0  0  0  0
  2 19  2  0  0  0  0
  2  3  1  0  0  0  0
  3  4  2  0  0  0  0
  3 24  1  0  0  0  0
  4 18  1  0  0  0  0
  4  5  1  0  0  0  0
  5  6  1  0  0  0  0
  5 25  1  0  0  0  0
  5 26  1  0  0  0  0
  6  7  2  0  0  0  0
  6  8  1  0  0  0  0
  8  9  1  0  0  0  0
  8 27  1  0  0  0  0
  9 15  1  0  0  0  0
  9 10  1  0  0  0  0
  9 28  1  0  0  0  0
 10 14  1  0  0  0  0
 10 11  1  0  0  0  0
 10 29  1  0  0  0  0
 11 12  1  0  0  0  0
 11 30  1  0  0  0  0
 11 31  1  0  0  0  0
 12 13  1  0  0  0  0
 12 32  1  0  0  0  0
 12 33  1  0  0  0  0
 13 14  1  0  0  0  0
 13 15  1  0  0  0  0
 13 34  1  0  0  0  0
 14 35  1  0  0  0  0
 14 36  1  0  0  0  0
 15 16  1  0  0  0  0
 15 37  1  0  0  0  0
 16 17  1  0  0  0  0
 16 38  1  0  0  0  0
 16 39  1  0  0  0  0
 17 40  1  0  0  0  0
 18 19  1  0  0  0  0
 18 20  1  0  0  0  0
M  END
> <s_m_source_file>
AV-unprocessed.smi

> <i_m_source_file_index>
2881

> <i_lp_mmshare_version>
43012

> <i_f3d_flags>
0

> <s_epik_input>
W0NIM11jMVtjSF1jKG5bbkhdMSlbQ0gyXUMoPU8pW05IXVtDQEhdKFtDQEBIXTIzKVtDQEhdKFtDSDJdW09IXSlbQ0BASF0oW0NIMl0zKVtDSDJdW0NIMl0y

> <s_epik_cmdline>
J2VwaWtfcHl0aG9uJywgJy1waCcsICc3LjAnLCAnLXRuJywgJzgnLCAnLW1hJywgJzIwMCcsICctbWV0YWxfYmluZGluZycsICctaW1hZScsICc8aW5maWxlLm1hZT4nLCAnLW9tYWUnLCAnPG91dGZpbGUubWFlPic=

> <r_lp_tautomer_probability>
0.5

> <r_epik_Ionization_Penalty>
0.00013396

> <r_epik_Ionization_Penalty_Charging>
0

> <r_epik_Ionization_Penalty_Neutral>
0.00013396

> <r_epik_State_Penalty>
0.41068

> <r_epik_Charging_Adjusted_Penalty>
0.41068

> <i_epik_Tot_Q>
0

> <i_epik_Tot_abs_Q>
0

> <r_epik_Metal_State_Penalty>
0.41066

> <b_epik_Metal_Only>
0

> <s_lp_Force_Field>
OPLS_2005

> <r_lp_Energy>
49.8973

> <b_lp_Chiralities_Consistent>
1

> <s_lp_Variant>
AV-unprocessed.smi:2881-10

> <Gold.Version>
5.8.1

> <Gold.Id.Protein>
6NUR|6NUR_protein|mol2

> <Gold.PLP.Fitness>
41.2242

> <Gold.PLP.PLP>
-35.2866

> <Gold.PLP.part.hbond>
-3.2689

> <Gold.PLP.part.metal>
0.0000

> <Gold.PLP.part.buried>
-1.1537

> <Gold.PLP.part.nonpolar>
-29.7932

> <Gold.PLP.part.repulsive>
0.1702

> <Gold.PLP.ligand.clash>
0.0000

> <Gold.PLP.ligand.torsion>
0.3401

> <Gold.PLP.Chemscore.Hbond>
2.2009

> <Gold.PLP.Chemscore.CHOScore>
0.0000

> <Gold.PLP.Chemscore.Metal>
0.0000

> <Gold.Chemscore.Hbonds>
donor molecule, donor type, donor heavy atom, donor atom, acceptor molecule, acceptor atom, score
      L1  H    17    40       P1  8028  1.00
      P1  H  7997  8010       L1     7  1.00
      P1  H  8011  8017       L1    17  0.12

> <Gold.PLP.Chemscore.Internal.Correction>
0.0149

> <Gold.Rescore>
     Score         DG    S(hbond)    S(metal)    S(lipo)     H(rot)  DE(clash)    DE(int)     intcor
     15.99     -17.74       1.94        0.00      99.14       2.28       1.60       0.15       ----

> <Gold.Chemscore.Fitness>
15.9867

> <Gold.Chemscore.DG>
-17.7360

> <Gold.Chemscore.ZeroCoef>
-5.4800

> <Gold.Chemscore.Hbond>
1.9407

> <Gold.Chemscore.Metal>
0.0000

> <Gold.Chemscore.Lipo>
99.1406

> <Gold.Chemscore.Internal_Hbond>
0.0000

> <Gold.Chemscore.DEClash>
1.6041

> <Gold.Chemscore.DEInternal>
0.1453

> <Gold.Chemscore.Rot>
2.2755

> <Gold.Chemscore.Internal.Correction>
   9.000000E+99

> <Gold.Chemscore.Hbonds>
donor molecule, donor type, donor heavy atom, donor atom, acceptor molecule, acceptor atom, score
      L1  H    17    40       P1  8028  0.97
      P1  H  7997  8010       L1     7  0.48
      P1  H  8011  8017       L1    17  0.02

> <Gold.Chemscore.Hbond.Weighted>
-6.4818

> <Gold.Chemscore.Metal.Weighted>
-0.0000

> <Gold.Chemscore.Lipo.Weighted>
-11.5995

> <Gold.Chemscore.Internal_Hbond.Weighted>
0.0000

> <Gold.Chemscore.DEClash.Weighted>
1.6041

> <Gold.Chemscore.DEInternal.Weighted>
0.1453

> <Gold.Chemscore.Rot.Weighted>
5.8252

> <Gold.Chemscore.Internal.Correction.Weighted>
   9.000000E+99

> <Gold.Protein.RotatedTorsions>
[ 6907 6896 6895 6894 ] final  111.51 input  -60.11 | X-H torsion
[ 7974 7965 7964 7962 ] final    3.26 input  175.53 | X-H torsion
[ 8008 7997 7996 7995 ] final   52.25 input   59.86 | X-H torsion
[ 10167 10162 10161 10158 ] final  -79.80 input  -65.29 | X-H torsion
[ 10718 10713 10712 10709 ] final -114.34 input   66.30 | X-H torsion
[ 10763 10752 10751 10750 ] final  -44.07 input  -60.55 | X-H torsion
[ 11005 11000 10999 10996 ] final   49.24 input  -57.11 | X-H torsion

> <Gold.Protein.ActiveResidues>
 VAL166  LYS551  ARG553  GLY616  TRP617  ASP618  TYR619  PRO620  LYS621  CYS622 
 ASP623  PHE694  ASN695  SER759  ASP760  ASP761  ALA762  ILE779  LEU786  VAL792 
 PHE793  MET794  SER795  GLU796  ALA797  LYS798  CYS799  TRP800  GLU811  SER814 

> <Gold.Protein.RotatedAtoms>
  152.4965  133.8647  159.7267 H   0  0  0  0  0  0  0  0  0  0  0  0  # atno 6907 bound_to 6896
  150.9149  133.6942  159.2852 H   0  0  0  0  0  0  0  0  0  0  0  0  # atno 6908 bound_to 6896
  151.4339  135.1017  159.9703 H   0  0  0  0  0  0  0  0  0  0  0  0  # atno 6909 bound_to 6896
  146.2445  140.0711  142.8362 H   0  0  0  0  0  0  0  0  0  0  0  0  # atno 7974 bound_to 7965
  155.4486  140.3457  155.4298 H   0  0  0  0  0  0  0  0  0  0  0  0  # atno 8008 bound_to 7997
  156.1234  140.1493  156.9201 H   0  0  0  0  0  0  0  0  0  0  0  0  # atno 8009 bound_to 7997
  154.4840  140.0861  156.7423 H   0  0  0  0  0  0  0  0  0  0  0  0  # atno 8010 bound_to 7997
  140.4561  143.2468  151.8418 H   0  0  0  0  0  0  0  0  0  0  0  0  # atno 10167 bound_to 10162
  156.0823  130.6021  150.8761 H   0  0  0  0  0  0  0  0  0  0  0  0  # atno 10718 bound_to 10713
  154.0060  135.6687  153.4762 H   0  0  0  0  0  0  0  0  0  0  0  0  # atno 10763 bound_to 10752
  153.0641  135.5011  154.8157 H   0  0  0  0  0  0  0  0  0  0  0  0  # atno 10764 bound_to 10752
  154.7024  135.3081  154.9285 H   0  0  0  0  0  0  0  0  0  0  0  0  # atno 10765 bound_to 10752
  140.1121  134.4941  155.8669 H   0  0  0  0  0  0  0  0  0  0  0  0  # atno 11005 bound_to 11000
  145.0815  140.9224  143.4822 LP  0  0  0  0  0  0  0  0  0  0  0  0  # atno 17320 bound_to 7965
  145.0865  139.2921  143.5757 LP  0  0  0  0  0  0  0  0  0  0  0  0  # atno 17321 bound_to 7965
  139.4801  144.5063  151.8992 LP  0  0  0  0  0  0  0  0  0  0  0  0  # atno 17342 bound_to 10162
  140.4150  144.2319  150.5888 LP  0  0  0  0  0  0  0  0  0  0  0  0  # atno 17343 bound_to 10162
  157.5945  131.0943  150.9064 LP  0  0  0  0  0  0  0  0  0  0  0  0  # atno 17370 bound_to 10713
  156.9233  130.5323  149.5279 LP  0  0  0  0  0  0  0  0  0  0  0  0  # atno 17371 bound_to 10713
  141.2132  133.6731  156.6724 LP  0  0  0  0  0  0  0  0  0  0  0  0  # atno 17394 bound_to 11000
  140.3077  134.8111  157.4151 LP  0  0  0  0  0  0  0  0  0  0  0  0  # atno 17395 bound_to 11000

$$$$
