AV-unprocessed.smi:1378|AV-procd|sdf|5596|dock10
  -GOLD-   22720 5203D 1   1.00000     0.00000
 Structure written by MMmdl.
 46 48  0  0  0  0  0  0  0  0  1 V2000
  139.2560  136.5405  153.8635 C   0  0  0  0  0  0  0  0  0  0  0  0
  140.3388  135.6804  154.1694 O   0  0  0  0  0  0  0  0  0  0  0  0
  141.4863  135.9457  153.3788 C   0  0  0  0  0  0  0  0  0  0  0  0
  142.6277  135.0105  153.7999 C   0  0  0  0  0  0  0  0  0  0  0  0
  143.6925  134.9716  152.8092 N   0  0  0  0  0  0  0  0  0  0  0  0
  144.7033  135.8578  152.6387 C   0  0  0  0  0  0  0  0  0  0  0  0
  144.8994  137.2635  153.6856 S   0  0  0  0  0  0  0  0  0  0  0  0
  146.2239  138.1017  152.7613 C   0  0  0  0  0  0  0  0  0  0  0  0
  146.9353  139.1759  153.5849 C   0  0  0  0  0  0  0  0  0  0  0  0
  148.0595  138.9632  154.0377 O   0  0  0  0  0  0  0  0  0  0  0  0
  146.2773  140.3345  153.7424 N   0  0  0  0  0  0  0  0  0  0  0  0
  146.8063  141.5344  154.3816 C   0  0  0  0  0  0  0  0  0  0  0  0
  146.9988  141.3206  155.8946 C   0  0  0  0  0  0  0  0  0  0  0  0
  145.8881  142.1219  156.5742 C   0  0  0  0  0  0  0  0  0  0  0  0
  145.6508  143.2998  155.6342 C   0  0  0  0  0  0  0  0  0  0  0  0
  145.8150  142.7054  154.2347 C   0  0  0  0  0  0  0  0  0  0  0  0
  145.5588  135.5784  151.6554 N   0  0  0  0  0  0  0  0  0  0  0  0
  145.0569  134.3985  151.1422 C   0  0  0  0  0  0  0  0  0  0  0  0
  145.5241  133.5844  150.0859 C   0  0  0  0  0  0  0  0  0  0  0  0
  144.8391  132.4009  149.7407 C   0  0  0  0  0  0  0  0  0  0  0  0
  143.6795  132.0160  150.4440 C   0  0  0  0  0  0  0  0  0  0  0  0
  143.1971  132.8129  151.4997 C   0  0  0  0  0  0  0  0  0  0  0  0
  143.8862  133.9916  151.8420 C   0  0  0  0  0  0  0  0  0  0  0  0
  138.4060  136.2988  154.5014 H   0  0  0  0  0  0  0  0  0  0  0  0
  138.9416  136.4242  152.8256 H   0  0  0  0  0  0  0  0  0  0  0  0
  139.5203  137.5847  154.0354 H   0  0  0  0  0  0  0  0  0  0  0  0
  141.2545  135.7998  152.3225 H   0  0  0  0  0  0  0  0  0  0  0  0
  141.7942  136.9845  153.5050 H   0  0  0  0  0  0  0  0  0  0  0  0
  143.0399  135.3175  154.7614 H   0  0  0  0  0  0  0  0  0  0  0  0
  142.2482  133.9986  153.9438 H   0  0  0  0  0  0  0  0  0  0  0  0
  146.9425  137.3623  152.4057 H   0  0  0  0  0  0  0  0  0  0  0  0
  145.7878  138.5649  151.8758 H   0  0  0  0  0  0  0  0  0  0  0  0
  145.3550  140.4085  153.3377 H   0  0  0  0  0  0  0  0  0  0  0  0
  147.7600  141.8115  153.9288 H   0  0  0  0  0  0  0  0  0  0  0  0
  146.9872  140.2706  156.1899 H   0  0  0  0  0  0  0  0  0  0  0  0
  147.9668  141.7253  156.1927 H   0  0  0  0  0  0  0  0  0  0  0  0
  144.9839  141.5154  156.6390 H   0  0  0  0  0  0  0  0  0  0  0  0
  146.1535  142.4362  157.5838 H   0  0  0  0  0  0  0  0  0  0  0  0
  144.6756  143.7656  155.7805 H   0  0  0  0  0  0  0  0  0  0  0  0
  146.4131  144.0615  155.8022 H   0  0  0  0  0  0  0  0  0  0  0  0
  146.1579  143.4477  153.5131 H   0  0  0  0  0  0  0  0  0  0  0  0
  144.8439  142.3485  153.8880 H   0  0  0  0  0  0  0  0  0  0  0  0
  146.4117  133.8699  149.5410 H   0  0  0  0  0  0  0  0  0  0  0  0
  145.2046  131.7860  148.9314 H   0  0  0  0  0  0  0  0  0  0  0  0
  143.1602  131.1086  150.1723 H   0  0  0  0  0  0  0  0  0  0  0  0
  142.3085  132.5220  152.0402 H   0  0  0  0  0  0  0  0  0  0  0  0
  1  2  1  0  0  0  0
  1 24  1  0  0  0  0
  1 25  1  0  0  0  0
  1 26  1  0  0  0  0
  2  3  1  0  0  0  0
  3  4  1  0  0  0  0
  3 27  1  0  0  0  0
  3 28  1  0  0  0  0
  4  5  1  0  0  0  0
  4 29  1  0  0  0  0
  4 30  1  0  0  0  0
  5 23  1  0  0  0  0
  5  6  1  0  0  0  0
  6  7  1  0  0  0  0
  6 17  2  0  0  0  0
  7  8  1  0  0  0  0
  8  9  1  0  0  0  0
  8 31  1  0  0  0  0
  8 32  1  0  0  0  0
  9 10  2  0  0  0  0
  9 11  1  0  0  0  0
 11 12  1  0  0  0  0
 11 33  1  0  0  0  0
 12 16  1  0  0  0  0
 12 13  1  0  0  0  0
 12 34  1  0  0  0  0
 13 14  1  0  0  0  0
 13 35  1  0  0  0  0
 13 36  1  0  0  0  0
 14 15  1  0  0  0  0
 14 37  1  0  0  0  0
 14 38  1  0  0  0  0
 15 16  1  0  0  0  0
 15 39  1  0  0  0  0
 15 40  1  0  0  0  0
 16 41  1  0  0  0  0
 16 42  1  0  0  0  0
 17 18  1  0  0  0  0
 18 23  2  0  0  0  0
 18 19  1  0  0  0  0
 19 20  2  0  0  0  0
 19 43  1  0  0  0  0
 20 21  1  0  0  0  0
 20 44  1  0  0  0  0
 21 22  2  0  0  0  0
 21 45  1  0  0  0  0
 22 23  1  0  0  0  0
 22 46  1  0  0  0  0
M  END
> <s_m_source_file>
AV-unprocessed.smi

> <i_m_source_file_index>
1378

> <i_lp_mmshare_version>
43012

> <i_f3d_flags>
0

> <s_epik_input>
W2NIXTFbY0hdW2NIXVtjSF1jKGMxMiluKFtDSDJdW0NIMl1PW0NIM10pYyhuMilTW0NIMl1DKD1PKVtOSF1bQ0hdM1tDSDJdW0NIMl1bQ0gyXVtDSDJdMw==

> <s_epik_cmdline>
J2VwaWtfcHl0aG9uJywgJy1waCcsICc3LjAnLCAnLXRuJywgJzgnLCAnLW1hJywgJzIwMCcsICctbWV0YWxfYmluZGluZycsICctaW1hZScsICc8aW5maWxlLm1hZT4nLCAnLW9tYWUnLCAnPG91dGZpbGUubWFlPic=

> <r_epik_Ionization_Penalty>
0.0369383

> <r_epik_Ionization_Penalty_Charging>
0

> <r_epik_Ionization_Penalty_Neutral>
0.0369383

> <r_epik_State_Penalty>
0.0308874

> <r_epik_Charging_Adjusted_Penalty>
0.0308874

> <i_epik_Tot_Q>
0

> <i_epik_Tot_abs_Q>
0

> <r_epik_Metal_State_Penalty>
0.0290628

> <b_epik_Metal_Only>
0

> <s_lp_Force_Field>
OPLS_2005

> <r_lp_Energy>
18.5214

> <b_lp_Chiralities_Consistent>
1

> <s_lp_Variant>
AV-unprocessed.smi:1378-1

> <Gold.Version>
5.8.1

> <Gold.Id.Protein>
6NUR|6NUR_protein|mol2

> <Gold.PLP.Fitness>
46.3945

> <Gold.PLP.PLP>
-42.3245

> <Gold.PLP.part.hbond>
-2.0000

> <Gold.PLP.part.metal>
0.0000

> <Gold.PLP.part.buried>
-7.5848

> <Gold.PLP.part.nonpolar>
-34.9818

> <Gold.PLP.part.repulsive>
0.6642

> <Gold.PLP.ligand.clash>
0.0000

> <Gold.PLP.ligand.torsion>
0.7674

> <Gold.PLP.Chemscore.Hbond>
1.8288

> <Gold.PLP.Chemscore.CHOScore>
0.0000

> <Gold.PLP.Chemscore.Metal>
0.0000

> <Gold.Chemscore.Hbonds>
donor molecule, donor type, donor heavy atom, donor atom, acceptor molecule, acceptor atom, score
      L1  H    11    33       P1 10175  1.00
      P1  H 11000 11005       L1     2  1.00

> <Gold.PLP.Chemscore.Internal.Correction>
0.1185

> <Gold.Rescore>
     Score         DG    S(hbond)    S(metal)    S(lipo)     H(rot)  DE(clash)    DE(int)     intcor
     17.20     -17.98       1.96        0.00      94.21       1.98       0.20       0.59       ----

> <Gold.Chemscore.Fitness>
17.1976

> <Gold.Chemscore.DG>
-17.9848

> <Gold.Chemscore.ZeroCoef>
-5.4800

> <Gold.Chemscore.Hbond>
1.9608

> <Gold.Chemscore.Metal>
0.0000

> <Gold.Chemscore.Lipo>
94.2109

> <Gold.Chemscore.Internal_Hbond>
0.0000

> <Gold.Chemscore.DEClash>
0.2003

> <Gold.Chemscore.DEInternal>
0.5869

> <Gold.Chemscore.Rot>
1.9792

> <Gold.Chemscore.Internal.Correction>
   9.000000E+99

> <Gold.Chemscore.Hbonds>
donor molecule, donor type, donor heavy atom, donor atom, acceptor molecule, acceptor atom, score
      L1  H    11    33       P1 10175  0.98
      P1  H 11000 11005       L1     2  0.88

> <Gold.Chemscore.Hbond.Weighted>
-6.5490

> <Gold.Chemscore.Metal.Weighted>
-0.0000

> <Gold.Chemscore.Lipo.Weighted>
-11.0227

> <Gold.Chemscore.Internal_Hbond.Weighted>
0.0000

> <Gold.Chemscore.DEClash.Weighted>
0.2003

> <Gold.Chemscore.DEInternal.Weighted>
0.5869

> <Gold.Chemscore.Rot.Weighted>
5.0669

> <Gold.Chemscore.Internal.Correction.Weighted>
   9.000000E+99

> <Gold.Protein.RotatedTorsions>
[ 6907 6896 6895 6894 ] final  162.08 input  -60.11 | X-H torsion
[ 7974 7965 7964 7962 ] final  163.29 input  175.53 | X-H torsion
[ 8008 7997 7996 7995 ] final  -51.95 input   59.86 | X-H torsion
[ 10167 10162 10161 10158 ] final -104.73 input  -65.29 | X-H torsion
[ 10718 10713 10712 10709 ] final -114.48 input   66.30 | X-H torsion
[ 10763 10752 10751 10750 ] final  128.25 input  -60.55 | X-H torsion
[ 11005 11000 10999 10996 ] final   47.99 input  -57.11 | X-H torsion

> <Gold.Protein.ActiveResidues>
 VAL166  LYS551  ARG553  GLY616  TRP617  ASP618  TYR619  PRO620  LYS621  CYS622 
 ASP623  PHE694  ASN695  SER759  ASP760  ASP761  ALA762  ILE779  LEU786  VAL792 
 PHE793  MET794  SER795  GLU796  ALA797  LYS798  CYS799  TRP800  GLU811  SER814 

> <Gold.Protein.RotatedAtoms>
  151.9458  133.3651  159.3981 H   0  0  0  0  0  0  0  0  0  0  0  0  # atno 6907 bound_to 6896
  150.6990  134.4392  159.5293 H   0  0  0  0  0  0  0  0  0  0  0  0  # atno 6908 bound_to 6896
  152.2056  134.8548  160.0554 H   0  0  0  0  0  0  0  0  0  0  0  0  # atno 6909 bound_to 6896
  144.7596  139.8162  143.6337 H   0  0  0  0  0  0  0  0  0  0  0  0  # atno 7974 bound_to 7965
  154.4095  140.1235  156.4913 H   0  0  0  0  0  0  0  0  0  0  0  0  # atno 8008 bound_to 7997
  155.6988  140.3495  155.4904 H   0  0  0  0  0  0  0  0  0  0  0  0  # atno 8009 bound_to 7997
  155.9404  140.1086  157.1050 H   0  0  0  0  0  0  0  0  0  0  0  0  # atno 8010 bound_to 7997
  140.2062  143.3781  152.1089 H   0  0  0  0  0  0  0  0  0  0  0  0  # atno 10167 bound_to 10162
  156.0832  130.6029  150.8780 H   0  0  0  0  0  0  0  0  0  0  0  0  # atno 10718 bound_to 10713
  153.7225  135.3251  155.3269 H   0  0  0  0  0  0  0  0  0  0  0  0  # atno 10763 bound_to 10752
  154.8351  135.4503  154.1203 H   0  0  0  0  0  0  0  0  0  0  0  0  # atno 10764 bound_to 10752
  153.2328  135.6962  153.7951 H   0  0  0  0  0  0  0  0  0  0  0  0  # atno 10765 bound_to 10752
  140.1230  134.4804  155.8582 H   0  0  0  0  0  0  0  0  0  0  0  0  # atno 11005 bound_to 11000
  146.1646  139.4772  142.9967 LP  0  0  0  0  0  0  0  0  0  0  0  0  # atno 17320 bound_to 7965
  145.6662  141.0228  143.1682 LP  0  0  0  0  0  0  0  0  0  0  0  0  # atno 17321 bound_to 7965
  139.5198  144.7024  151.5455 LP  0  0  0  0  0  0  0  0  0  0  0  0  # atno 17342 bound_to 10162
  140.6356  143.8991  150.6644 LP  0  0  0  0  0  0  0  0  0  0  0  0  # atno 17343 bound_to 10162
  157.5957  131.0943  150.9044 LP  0  0  0  0  0  0  0  0  0  0  0  0  # atno 17370 bound_to 10713
  156.9211  130.5315  149.5279 LP  0  0  0  0  0  0  0  0  0  0  0  0  # atno 17371 bound_to 10713
  141.2155  133.6767  156.6925 LP  0  0  0  0  0  0  0  0  0  0  0  0  # atno 17394 bound_to 11000
  140.2940  134.8218  157.4041 LP  0  0  0  0  0  0  0  0  0  0  0  0  # atno 17395 bound_to 11000

$$$$
