AV-unprocessed.smi:1962|AV-procd|sdf|7923|dock8
  -GOLD-   2272010 93D 1   1.00000     0.00000
 Structure written by MMmdl.
 36 37  0  0  0  0  0  0  0  0  1 V2000
  144.5168  135.9124  151.7028 C   0  0  0  0  0  0  0  0  0  0  0  0
  145.6324  135.3476  152.5922 C   0  0  1  0  0  0  0  0  0  0  0  0
  146.3805  134.1938  151.8921 C   0  0  0  0  0  0  0  0  0  0  0  0
  145.4792  133.2414  151.2671 N   0  0  0  0  0  0  0  0  0  0  0  0
  144.7681  133.3792  150.0938 C   0  0  0  0  0  0  0  0  0  0  0  0
  144.0472  132.2328  149.9186 C   0  0  0  0  0  0  0  0  0  0  0  0
  144.3901  131.4418  151.0507 C   0  0  0  0  0  0  0  0  0  0  0  0
  145.2496  132.0466  151.8545 N   0  0  0  0  0  0  0  0  0  0  0  0
  146.5548  136.4271  152.9408 N   0  0  0  0  0  0  0  0  0  0  0  0
  146.2091  137.6361  153.4222 C   0  0  0  0  0  0  0  0  0  0  0  0
  145.0400  137.9809  153.5972 O   0  0  0  0  0  0  0  0  0  0  0  0
  147.3352  138.5491  153.7533 C   0  0  0  0  0  0  0  0  0  0  0  0
  148.4790  138.0625  154.1214 N   0  0  0  0  0  0  0  0  0  0  0  0
  149.5544  138.8706  154.4291 N   0  0  0  0  0  0  0  0  0  0  0  0
  150.8295  138.1695  154.5657 C   0  0  0  0  0  0  0  0  0  0  0  0
  149.4794  140.2093  154.6345 C   0  0  0  0  0  0  0  0  0  0  0  0
  150.4521  140.9169  154.8963 O   0  0  0  0  0  0  0  0  0  0  0  0
  148.0835  140.8341  154.5598 C   0  0  0  0  0  0  0  0  0  0  0  0
  147.1400  140.0473  153.6285 C   0  0  0  0  0  0  0  0  0  0  0  0
  143.7911  135.1399  151.4469 H   0  0  0  0  0  0  0  0  0  0  0  0
  144.9160  136.3157  150.7716 H   0  0  0  0  0  0  0  0  0  0  0  0
  143.9780  136.7138  152.2096 H   0  0  0  0  0  0  0  0  0  0  0  0
  145.1575  134.9577  153.4943 H   0  0  0  0  0  0  0  0  0  0  0  0
  147.0336  134.5906  151.1138 H   0  0  0  0  0  0  0  0  0  0  0  0
  147.0250  133.6690  152.5995 H   0  0  0  0  0  0  0  0  0  0  0  0
  144.8291  134.2741  149.4922 H   0  0  0  0  0  0  0  0  0  0  0  0
  143.3760  131.9960  149.1067 H   0  0  0  0  0  0  0  0  0  0  0  0
  144.0431  130.4526  151.3104 H   0  0  0  0  0  0  0  0  0  0  0  0
  147.5401  136.2328  152.8331 H   0  0  0  0  0  0  0  0  0  0  0  0
  151.2173  138.2736  155.5803 H   0  0  0  0  0  0  0  0  0  0  0  0
  151.5685  138.5767  153.8741 H   0  0  0  0  0  0  0  0  0  0  0  0
  150.7353  137.1026  154.3563 H   0  0  0  0  0  0  0  0  0  0  0  0
  147.6755  140.8446  155.5712 H   0  0  0  0  0  0  0  0  0  0  0  0
  148.1538  141.8737  154.2382 H   0  0  0  0  0  0  0  0  0  0  0  0
  147.3049  140.3462  152.5929 H   0  0  0  0  0  0  0  0  0  0  0  0
  146.1122  140.3233  153.8679 H   0  0  0  0  0  0  0  0  0  0  0  0
  1  2  1  0  0  0  0
  1 20  1  0  0  0  0
  1 21  1  0  0  0  0
  1 22  1  0  0  0  0
  2  3  1  0  0  0  0
  2  9  1  0  0  0  0
  2 23  1  0  0  0  0
  3  4  1  0  0  0  0
  3 24  1  0  0  0  0
  3 25  1  0  0  0  0
  4  8  1  0  0  0  0
  4  5  1  0  0  0  0
  5  6  2  0  0  0  0
  5 26  1  0  0  0  0
  6  7  1  0  0  0  0
  6 27  1  0  0  0  0
  7  8  2  0  0  0  0
  7 28  1  0  0  0  0
  9 10  1  0  0  0  0
  9 29  1  0  0  0  0
 10 11  2  0  0  0  0
 10 12  1  0  0  0  0
 12 19  1  0  0  0  0
 12 13  2  0  0  0  0
 13 14  1  0  0  0  0
 14 15  1  0  0  0  0
 14 16  1  0  0  0  0
 15 30  1  0  0  0  0
 15 31  1  0  0  0  0
 15 32  1  0  0  0  0
 16 17  2  0  0  0  0
 16 18  1  0  0  0  0
 18 19  1  0  0  0  0
 18 33  1  0  0  0  0
 18 34  1  0  0  0  0
 19 35  1  0  0  0  0
 19 36  1  0  0  0  0
M  END
> <s_m_source_file>
AV-unprocessed.smi

> <i_m_source_file_index>
1962

> <i_lp_mmshare_version>
43012

> <i_f3d_flags>
0

> <s_epik_input>
bjFbY0hdW2NIXVtjSF1uMVtDSDJdW0NAQEhdKFtDSDNdKVtOSF1DKD1PKUMyPU5OKFtDSDNdKUMoPU8pW0NIMl1bQ0gyXTI=

> <s_epik_cmdline>
J2VwaWtfcHl0aG9uJywgJy1waCcsICc3LjAnLCAnLXRuJywgJzgnLCAnLW1hJywgJzIwMCcsICctbWV0YWxfYmluZGluZycsICctaW1hZScsICc8aW5maWxlLm1hZT4nLCAnLW9tYWUnLCAnPG91dGZpbGUubWFlPic=

> <r_lp_tautomer_probability>
1

> <r_epik_Ionization_Penalty>
9.43868e-05

> <r_epik_Ionization_Penalty_Charging>
0

> <r_epik_Ionization_Penalty_Neutral>
9.43868e-05

> <r_epik_State_Penalty>
-0

> <r_epik_Charging_Adjusted_Penalty>
0

> <i_epik_Tot_Q>
0

> <i_epik_Tot_abs_Q>
0

> <r_epik_Metal_State_Penalty>
0.0732556

> <b_epik_Metal_Only>
0

> <s_epik_Chemistry_Notes>
This compound has an imine and may undergo hydrolysis.

> <s_lp_Force_Field>
OPLS_2005

> <r_lp_Energy>
16.0721

> <b_lp_Chiralities_Consistent>
1

> <s_lp_Variant>
AV-unprocessed.smi:1962-2

> <Gold.Version>
5.8.1

> <Gold.Id.Protein>
6NUR|6NUR_protein|mol2

> <Gold.PLP.Fitness>
36.7655

> <Gold.PLP.PLP>
-29.9800

> <Gold.PLP.part.hbond>
-2.0000

> <Gold.PLP.part.metal>
0.0000

> <Gold.PLP.part.buried>
-4.6778

> <Gold.PLP.part.nonpolar>
-26.0452

> <Gold.PLP.part.repulsive>
2.2203

> <Gold.PLP.ligand.clash>
0.0000

> <Gold.PLP.ligand.torsion>
0.7548

> <Gold.PLP.Chemscore.Hbond>
1.7680

> <Gold.PLP.Chemscore.CHOScore>
0.9901

> <Gold.PLP.Chemscore.Metal>
0.0000

> <Gold.Chemscore.Hbonds>
donor molecule, donor type, donor heavy atom, donor atom, acceptor molecule, acceptor atom, score
      L1  H     9    29       P1  7948  0.99
      P1  H  7989  7998       L1    17  0.75
      L1  C     5    26       P1  7921  1.00

> <Gold.PLP.Chemscore.Internal.Correction>
0.0208

> <Gold.Rescore>
     Score         DG    S(hbond)    S(metal)    S(lipo)     H(rot)  DE(clash)    DE(int)     intcor
     11.91     -14.92       1.72        0.00      64.85       1.53       0.88       2.13       ----

> <Gold.Chemscore.Fitness>
11.9115

> <Gold.Chemscore.DG>
-14.9237

> <Gold.Chemscore.ZeroCoef>
-5.4800

> <Gold.Chemscore.Hbond>
1.7250

> <Gold.Chemscore.Metal>
0.0000

> <Gold.Chemscore.Lipo>
64.8486

> <Gold.Chemscore.Internal_Hbond>
0.0000

> <Gold.Chemscore.DEClash>
0.8782

> <Gold.Chemscore.DEInternal>
2.1341

> <Gold.Chemscore.Rot>
1.5254

> <Gold.Chemscore.Internal.Correction>
   9.000000E+99

> <Gold.Chemscore.Hbonds>
donor molecule, donor type, donor heavy atom, donor atom, acceptor molecule, acceptor atom, score
      L1  H     9    29       P1  7948  0.93
      P1  H  7989  7998       L1    17  0.56

> <Gold.Chemscore.Hbond.Weighted>
-5.7615

> <Gold.Chemscore.Metal.Weighted>
-0.0000

> <Gold.Chemscore.Lipo.Weighted>
-7.5873

> <Gold.Chemscore.Internal_Hbond.Weighted>
0.0000

> <Gold.Chemscore.DEClash.Weighted>
0.8782

> <Gold.Chemscore.DEInternal.Weighted>
2.1341

> <Gold.Chemscore.Rot.Weighted>
3.9051

> <Gold.Chemscore.Internal.Correction.Weighted>
   9.000000E+99

> <Gold.Protein.RotatedTorsions>
[ 6907 6896 6895 6894 ] final   93.78 input  -60.11 | X-H torsion
[ 7974 7965 7964 7962 ] final  -78.23 input  175.53 | X-H torsion
[ 8008 7997 7996 7995 ] final   88.39 input   59.86 | X-H torsion
[ 10167 10162 10161 10158 ] final  -92.37 input  -65.29 | X-H torsion
[ 10718 10713 10712 10709 ] final -166.61 input   66.30 | X-H torsion
[ 10763 10752 10751 10750 ] final -144.14 input  -60.55 | X-H torsion
[ 11005 11000 10999 10996 ] final  -22.00 input  -57.11 | X-H torsion

> <Gold.Protein.ActiveResidues>
 VAL166  LYS551  ARG553  GLY616  TRP617  ASP618  TYR619  PRO620  LYS621  CYS622 
 ASP623  PHE694  ASN695  SER759  ASP760  ASP761  ALA762  ILE779  LEU786  VAL792 
 PHE793  MET794  SER795  GLU796  ALA797  LYS798  CYS799  TRP800  GLU811  SER814 

> <Gold.Protein.RotatedAtoms>
  152.5451  134.1294  159.8432 H   0  0  0  0  0  0  0  0  0  0  0  0  # atno 6907 bound_to 6896
  151.1342  133.5009  159.2606 H   0  0  0  0  0  0  0  0  0  0  0  0  # atno 6908 bound_to 6896
  151.1643  135.0298  159.8778 H   0  0  0  0  0  0  0  0  0  0  0  0  # atno 6909 bound_to 6896
  145.5892  140.9433  143.1301 H   0  0  0  0  0  0  0  0  0  0  0  0  # atno 7974 bound_to 7965
  155.9871  140.3372  155.6718 H   0  0  0  0  0  0  0  0  0  0  0  0  # atno 8008 bound_to 7997
  155.6470  140.0701  157.2617 H   0  0  0  0  0  0  0  0  0  0  0  0  # atno 8009 bound_to 7997
  154.4208  140.1732  156.1622 H   0  0  0  0  0  0  0  0  0  0  0  0  # atno 8010 bound_to 7997
  140.3355  143.2971  151.9894 H   0  0  0  0  0  0  0  0  0  0  0  0  # atno 10167 bound_to 10162
  156.6703  130.9081  151.3042 H   0  0  0  0  0  0  0  0  0  0  0  0  # atno 10718 bound_to 10713
  154.8440  135.3448  154.6299 H   0  0  0  0  0  0  0  0  0  0  0  0  # atno 10763 bound_to 10752
  153.6909  135.6975  153.5095 H   0  0  0  0  0  0  0  0  0  0  0  0  # atno 10764 bound_to 10752
  153.2596  135.4327  155.0835 H   0  0  0  0  0  0  0  0  0  0  0  0  # atno 10765 bound_to 10752
  140.8615  133.7784  156.0080 H   0  0  0  0  0  0  0  0  0  0  0  0  # atno 11005 bound_to 11000
  144.7359  139.7588  143.7329 LP  0  0  0  0  0  0  0  0  0  0  0  0  # atno 17320 bound_to 7965
  146.1659  139.4791  142.9958 LP  0  0  0  0  0  0  0  0  0  0  0  0  # atno 17321 bound_to 7965
  139.4849  144.6200  151.7273 LP  0  0  0  0  0  0  0  0  0  0  0  0  # atno 17342 bound_to 10162
  140.5358  144.0659  150.6070 LP  0  0  0  0  0  0  0  0  0  0  0  0  # atno 17343 bound_to 10162
  157.7079  130.9406  150.0992 LP  0  0  0  0  0  0  0  0  0  0  0  0  # atno 17370 bound_to 10713
  156.1944  130.3656  149.8868 LP  0  0  0  0  0  0  0  0  0  0  0  0  # atno 17371 bound_to 10713
  140.8677  134.2764  157.5205 LP  0  0  0  0  0  0  0  0  0  0  0  0  # atno 17394 bound_to 11000
  139.8707  134.9551  156.4196 LP  0  0  0  0  0  0  0  0  0  0  0  0  # atno 17395 bound_to 11000

$$$$
