AV-unprocessed.smi:49|AV-procd|sdf|464|dock1
  -GOLD-   2262016333D 1   1.00000     0.00000
 Structure written by MMmdl.
 28 29  0  0  0  0  0  0  0  0  2 V2000
  152.5108  142.9310  158.7018 C   0  0  0  0  0  0  0  0  0  0  0  0
  152.0616  141.4667  158.6516 C   0  0  0  0  0  0  0  0  0  0  0  0
  151.4325  141.1052  157.3464 C   0  0  0  0  0  0  0  0  0  0  0  0
  150.4495  141.7792  156.7586 N   0  0  0  0  0  0  0  0  0  0  0  0
  150.2866  141.0344  155.6243 C   0  0  0  0  0  0  0  0  0  0  0  0
  149.3006  141.4079  154.5620 C   0  0  1  0  0  0  0  0  0  0  0  0
  148.4029  140.2458  154.1292 C   0  0  0  0  0  0  0  0  0  0  0  0
  147.1897  140.9666  153.5505 C   0  0  1  0  0  0  0  0  0  0  0  0
  146.0384  140.1496  153.5427 O   0  0  0  0  0  0  0  0  0  0  0  0
  147.0322  142.1812  154.4711 C   0  0  0  0  0  0  0  0  0  0  0  0
  148.3833  142.4881  154.9821 N   0  3  0  0  0  0  0  0  0  0  0  0
  151.1088  139.9931  155.4881 N   0  0  0  0  0  0  0  0  0  0  0  0
  151.8366  140.0589  156.6234 N   0  0  0  0  0  0  0  0  0  0  0  0
  149.8434  141.7748  153.6893 H   0  0  0  0  0  0  0  0  0  0  0  0
  147.4094  141.2980  152.5344 H   0  0  0  0  0  0  0  0  0  0  0  0
  152.5719  139.4033  156.8483 H   0  0  0  0  0  0  0  0  0  0  0  0
  152.9584  143.1670  159.6674 H   0  0  0  0  0  0  0  0  0  0  0  0
  151.6679  143.6064  158.5517 H   0  0  0  0  0  0  0  0  0  0  0  0
  153.2511  143.1422  157.9299 H   0  0  0  0  0  0  0  0  0  0  0  0
  152.9136  140.8101  158.8319 H   0  0  0  0  0  0  0  0  0  0  0  0
  151.3450  141.2720  159.4503 H   0  0  0  0  0  0  0  0  0  0  0  0
  148.8874  139.5693  153.4244 H   0  0  0  0  0  0  0  0  0  0  0  0
  148.1013  139.6631  155.0018 H   0  0  0  0  0  0  0  0  0  0  0  0
  145.3484  140.6009  153.0799 H   0  0  0  0  0  0  0  0  0  0  0  0
  146.5910  143.0366  153.9588 H   0  0  0  0  0  0  0  0  0  0  0  0
  146.4009  141.9392  155.3274 H   0  0  0  0  0  0  0  0  0  0  0  0
  148.3504  142.5190  155.9915 H   0  0  0  0  0  0  0  0  0  0  0  0
  148.7115  143.3737  154.6249 H   0  0  0  0  0  0  0  0  0  0  0  0
  1  2  1  0  0  0  0
  1 17  1  0  0  0  0
  1 18  1  0  0  0  0
  1 19  1  0  0  0  0
  2  3  1  0  0  0  0
  2 20  1  0  0  0  0
  2 21  1  0  0  0  0
  3 13  1  0  0  0  0
  3  4  2  0  0  0  0
  4  5  1  0  0  0  0
  5  6  1  0  0  0  0
  5 12  2  0  0  0  0
  6 14  1  0  0  0  0
  6 11  1  0  0  0  0
  6  7  1  0  0  0  0
  7  8  1  0  0  0  0
  7 22  1  0  0  0  0
  7 23  1  0  0  0  0
  8 15  1  0  0  0  0
  8  9  1  0  0  0  0
  8 10  1  0  0  0  0
  9 24  1  0  0  0  0
 10 11  1  0  0  0  0
 10 25  1  0  0  0  0
 10 26  1  0  0  0  0
 11 27  1  0  0  0  0
 11 28  1  0  0  0  0
 12 13  1  0  0  0  0
 13 16  1  0  0  0  0
M  CHG  1  11   1
M  END
> <s_m_source_file>
AV-unprocessed.smi

> <i_m_source_file_index>
49

> <i_lp_mmshare_version>
43012

> <i_f3d_flags>
0

> <s_epik_input>
W0NIM11bQ0gyXWMxbmMobltuSF0xKVtDQEBIXTJbQ0gyXVtDQEBIXShbT0hdKVtDSDJdW05IXTI=

> <s_epik_cmdline>
J2VwaWtfcHl0aG9uJywgJy1waCcsICc3LjAnLCAnLXRuJywgJzgnLCAnLW1hJywgJzIwMCcsICctbWV0YWxfYmluZGluZycsICctaW1hZScsICc8aW5maWxlLm1hZT4nLCAnLW9tYWUnLCAnPG91dGZpbGUubWFlPic=

> <r_lp_tautomer_probability>
0.948284

> <r_epik_Ionization_Penalty>
0.045643

> <r_epik_Ionization_Penalty_Charging>
0.0371552

> <r_epik_Ionization_Penalty_Neutral>
0.00848778

> <r_epik_State_Penalty>
0.283309

> <r_epik_Charging_Adjusted_Penalty>
0.320465

> <i_epik_Tot_Q>
1

> <i_epik_Tot_abs_Q>
1

> <r_epik_Metal_State_Penalty>
0.558162

> <b_epik_Metal_Only>
0

> <s_lp_Force_Field>
OPLS_2005

> <r_lp_Energy>
16.6831

> <b_lp_Chiralities_Consistent>
1

> <s_lp_Variant>
AV-unprocessed.smi:49-2

> <Gold.Version>
5.8.1

> <Gold.Id.Protein>
6NUR|6NUR_protein|mol2

> <Gold.PLP.Fitness>
36.7244

> <Gold.PLP.PLP>
-25.1368

> <Gold.PLP.part.hbond>
-2.9909

> <Gold.PLP.part.metal>
0.0000

> <Gold.PLP.part.buried>
-2.9227

> <Gold.PLP.part.nonpolar>
-19.7150

> <Gold.PLP.part.repulsive>
0.3817

> <Gold.PLP.ligand.clash>
0.0000

> <Gold.PLP.ligand.torsion>
0.2139

> <Gold.PLP.Chemscore.Hbond>
4.0000

> <Gold.PLP.Chemscore.CHOScore>
0.0000

> <Gold.PLP.Chemscore.Metal>
0.0000

> <Gold.Chemscore.Hbonds>
donor molecule, donor type, donor heavy atom, donor atom, acceptor molecule, acceptor atom, score
      L1  H     9    24       P1 10175  0.91
      L1  H    11    28       P1  8028  0.90
      P1  H  7989  7998       L1    12  0.15

> <Gold.PLP.Chemscore.Internal.Correction>
0.0154

> <Gold.Rescore>
     Score         DG    S(hbond)    S(metal)    S(lipo)     H(rot)  DE(clash)    DE(int)     intcor
     13.10     -13.92       2.39        0.00      45.33       1.89       0.13       0.68       ----

> <Gold.Chemscore.Fitness>
13.0982

> <Gold.Chemscore.DG>
-13.9166

> <Gold.Chemscore.ZeroCoef>
-5.4800

> <Gold.Chemscore.Hbond>
2.3852

> <Gold.Chemscore.Metal>
0.0000

> <Gold.Chemscore.Lipo>
45.3337

> <Gold.Chemscore.Internal_Hbond>
0.0000

> <Gold.Chemscore.DEClash>
0.1338

> <Gold.Chemscore.DEInternal>
0.6845

> <Gold.Chemscore.Rot>
1.8883

> <Gold.Chemscore.Internal.Correction>
   9.000000E+99

> <Gold.Chemscore.Hbonds>
donor molecule, donor type, donor heavy atom, donor atom, acceptor molecule, acceptor atom, score
      L1  H     9    24       P1 10175  0.76
      L1  H    11    28       P1  8028  0.44

> <Gold.Chemscore.Hbond.Weighted>
-7.9665

> <Gold.Chemscore.Metal.Weighted>
-0.0000

> <Gold.Chemscore.Lipo.Weighted>
-5.3040

> <Gold.Chemscore.Internal_Hbond.Weighted>
0.0000

> <Gold.Chemscore.DEClash.Weighted>
0.1338

> <Gold.Chemscore.DEInternal.Weighted>
0.6845

> <Gold.Chemscore.Rot.Weighted>
4.8340

> <Gold.Chemscore.Internal.Correction.Weighted>
   9.000000E+99

> <Gold.Protein.RotatedTorsions>
[ 6907 6896 6895 6894 ] final  139.36 input  -60.11 | X-H torsion
[ 7974 7965 7964 7962 ] final -138.93 input  175.53 | X-H torsion
[ 8008 7997 7996 7995 ] final  151.62 input   59.86 | X-H torsion
[ 10167 10162 10161 10158 ] final -126.06 input  -65.29 | X-H torsion
[ 10718 10713 10712 10709 ] final  -91.37 input   66.30 | X-H torsion
[ 10763 10752 10751 10750 ] final   63.96 input  -60.55 | X-H torsion
[ 11005 11000 10999 10996 ] final  -18.19 input  -57.11 | X-H torsion

> <Gold.Protein.ActiveResidues>
 VAL166  LYS551  ARG553  GLY616  TRP617  ASP618  TYR619  PRO620  LYS621  CYS622 
 ASP623  PHE694  ASN695  SER759  ASP760  ASP761  ALA762  ILE779  LEU786  VAL792 
 PHE793  MET794  SER795  GLU796  ALA797  LYS798  CYS799  TRP800  GLU811  SER814 

> <Gold.Protein.RotatedAtoms>
  152.2558  133.5254  159.5351 H   0  0  0  0  0  0  0  0  0  0  0  0  # atno 6907 bound_to 6896
  150.7108  134.0898  159.3936 H   0  0  0  0  0  0  0  0  0  0  0  0  # atno 6908 bound_to 6896
  151.8817  135.0451  160.0540 H   0  0  0  0  0  0  0  0  0  0  0  0  # atno 6909 bound_to 6896
  144.8718  140.6378  143.5262 H   0  0  0  0  0  0  0  0  0  0  0  0  # atno 7974 bound_to 7965
  156.2666  140.2043  156.6204 H   0  0  0  0  0  0  0  0  0  0  0  0  # atno 8008 bound_to 7997
  154.6761  140.0545  157.0241 H   0  0  0  0  0  0  0  0  0  0  0  0  # atno 8009 bound_to 7997
  155.1067  140.3211  155.4535 H   0  0  0  0  0  0  0  0  0  0  0  0  # atno 8010 bound_to 7997
  139.9755  143.5799  152.2397 H   0  0  0  0  0  0  0  0  0  0  0  0  # atno 10167 bound_to 10162
  155.9993  130.4945  150.5464 H   0  0  0  0  0  0  0  0  0  0  0  0  # atno 10718 bound_to 10713
  153.0037  135.5410  154.6434 H   0  0  0  0  0  0  0  0  0  0  0  0  # atno 10763 bound_to 10752
  154.5683  135.2839  155.0854 H   0  0  0  0  0  0  0  0  0  0  0  0  # atno 10764 bound_to 10752
  154.2029  135.6481  153.5145 H   0  0  0  0  0  0  0  0  0  0  0  0  # atno 10765 bound_to 10752
  140.8244  133.8044  155.9692 H   0  0  0  0  0  0  0  0  0  0  0  0  # atno 11005 bound_to 11000
  145.4116  139.1579  143.4123 LP  0  0  0  0  0  0  0  0  0  0  0  0  # atno 17320 bound_to 7965
  146.2936  140.4220  142.8730 LP  0  0  0  0  0  0  0  0  0  0  0  0  # atno 17321 bound_to 7965
  139.6449  144.7657  151.2264 LP  0  0  0  0  0  0  0  0  0  0  0  0  # atno 17342 bound_to 10162
  140.7507  143.6256  150.8472 LP  0  0  0  0  0  0  0  0  0  0  0  0  # atno 17343 bound_to 10162
  157.3393  131.0714  151.1800 LP  0  0  0  0  0  0  0  0  0  0  0  0  # atno 17370 bound_to 10713
  157.2654  130.6679  149.5994 LP  0  0  0  0  0  0  0  0  0  0  0  0  # atno 17371 bound_to 10713
  140.9065  134.2313  157.5011 LP  0  0  0  0  0  0  0  0  0  0  0  0  # atno 17394 bound_to 11000
  139.8707  134.9731  156.4795 LP  0  0  0  0  0  0  0  0  0  0  0  0  # atno 17395 bound_to 11000

$$$$
