AV-unprocessed.smi:3348|AV-procd|sdf|12925|dock2
  -GOLD-   2272019353D 1   1.00000     0.00000
 Structure written by MMmdl.
 46 47  0  0  0  0  0  0  0  0  1 V2000
  147.7504  141.9079  153.8843 C   0  0  0  0  0  0  0  0  0  0  0  0
  148.9773  141.3410  154.6119 C   0  0  2  0  0  0  0  0  0  0  0  0
  149.0350  139.8048  154.4268 C   0  0  0  0  0  0  0  0  0  0  0  0
  150.3500  139.2261  154.6322 N   0  0  0  0  0  0  0  0  0  0  0  0
  150.7082  137.8938  154.6283 C   0  0  0  0  0  0  0  0  0  0  0  0
  152.0517  137.8342  154.8629 C   0  0  0  0  0  0  0  0  0  0  0  0
  152.4330  139.1993  154.9902 C   0  0  0  0  0  0  0  0  0  0  0  0
  151.4131  140.0306  154.8477 N   0  0  0  0  0  0  0  0  0  0  0  0
  148.9066  141.7195  156.0266 N   0  0  0  0  0  0  0  0  0  0  0  0
  149.9253  141.1190  156.8885 C   0  0  0  0  0  0  0  0  0  0  0  0
  151.0587  142.1092  157.1655 C   0  0  0  0  0  0  0  0  0  0  0  0
  151.3592  142.0357  158.5510 O   0  0  0  0  0  0  0  0  0  0  0  0
  152.5769  142.6585  158.9429 C   0  0  1  0  0  0  0  0  0  0  0  0
  152.5580  144.1644  158.6020 C   0  0  0  0  0  0  0  0  0  0  0  0
  151.4727  144.9107  159.3946 C   0  0  0  0  0  0  0  0  0  0  0  0
  151.6444  144.6969  160.9059 C   0  0  0  0  0  0  0  0  0  0  0  0
  151.6684  143.2012  161.2595 C   0  0  0  0  0  0  0  0  0  0  0  0
  152.7538  142.4475  160.4639 C   0  0  1  0  0  0  0  0  0  0  0  0
  152.8046  140.9580  160.8392 C   0  0  0  0  0  0  0  0  0  0  0  0
  147.7845  141.6772  152.8189 H   0  0  0  0  0  0  0  0  0  0  0  0
  147.7013  142.9931  153.9812 H   0  0  0  0  0  0  0  0  0  0  0  0
  146.8234  141.4950  154.2842 H   0  0  0  0  0  0  0  0  0  0  0  0
  149.8583  141.7938  154.1543 H   0  0  0  0  0  0  0  0  0  0  0  0
  148.3323  139.3166  155.1038 H   0  0  0  0  0  0  0  0  0  0  0  0
  148.7169  139.5410  153.4173 H   0  0  0  0  0  0  0  0  0  0  0  0
  149.9839  137.1088  154.4698 H   0  0  0  0  0  0  0  0  0  0  0  0
  152.6677  136.9500  154.9332 H   0  0  0  0  0  0  0  0  0  0  0  0
  153.4140  139.6086  155.1808 H   0  0  0  0  0  0  0  0  0  0  0  0
  148.9496  142.7298  156.1133 H   0  0  0  0  0  0  0  0  0  0  0  0
  149.5135  140.7760  157.8343 H   0  0  0  0  0  0  0  0  0  0  0  0
  150.3313  140.2350  156.3962 H   0  0  0  0  0  0  0  0  0  0  0  0
  151.9388  141.8214  156.5891 H   0  0  0  0  0  0  0  0  0  0  0  0
  150.7782  143.1166  156.8580 H   0  0  0  0  0  0  0  0  0  0  0  0
  153.4122  142.1799  158.4286 H   0  0  0  0  0  0  0  0  0  0  0  0
  153.5316  144.5955  158.8383 H   0  0  0  0  0  0  0  0  0  0  0  0
  152.4159  144.3233  157.5336 H   0  0  0  0  0  0  0  0  0  0  0  0
  151.5095  145.9755  159.1636 H   0  0  0  0  0  0  0  0  0  0  0  0
  150.4868  144.5617  159.0843 H   0  0  0  0  0  0  0  0  0  0  0  0
  152.5723  145.1648  161.2372 H   0  0  0  0  0  0  0  0  0  0  0  0
  150.8379  145.1941  161.4456 H   0  0  0  0  0  0  0  0  0  0  0  0
  151.8415  143.0841  162.3298 H   0  0  0  0  0  0  0  0  0  0  0  0
  150.6899  142.7637  161.0582 H   0  0  0  0  0  0  0  0  0  0  0  0
  153.7181  142.8761  160.7417 H   0  0  0  0  0  0  0  0  0  0  0  0
  151.8627  140.4566  160.6150 H   0  0  0  0  0  0  0  0  0  0  0  0
  153.0019  140.8288  161.9036 H   0  0  0  0  0  0  0  0  0  0  0  0
  153.5943  140.4423  160.2925 H   0  0  0  0  0  0  0  0  0  0  0  0
  1  2  1  0  0  0  0
  1 20  1  0  0  0  0
  1 21  1  0  0  0  0
  1 22  1  0  0  0  0
  2  3  1  0  0  0  0
  2  9  1  0  0  0  0
  2 23  1  0  0  0  0
  3  4  1  0  0  0  0
  3 24  1  0  0  0  0
  3 25  1  0  0  0  0
  4  8  1  0  0  0  0
  4  5  1  0  0  0  0
  5  6  2  0  0  0  0
  5 26  1  0  0  0  0
  6  7  1  0  0  0  0
  6 27  1  0  0  0  0
  7  8  2  0  0  0  0
  7 28  1  0  0  0  0
  9 10  1  0  0  0  0
  9 29  1  0  0  0  0
 10 11  1  0  0  0  0
 10 30  1  0  0  0  0
 10 31  1  0  0  0  0
 11 12  1  0  0  0  0
 11 32  1  0  0  0  0
 11 33  1  0  0  0  0
 12 13  1  0  0  0  0
 13 18  1  0  0  0  0
 13 14  1  0  0  0  0
 13 34  1  0  0  0  0
 14 15  1  0  0  0  0
 14 35  1  0  0  0  0
 14 36  1  0  0  0  0
 15 16  1  0  0  0  0
 15 37  1  0  0  0  0
 15 38  1  0  0  0  0
 16 17  1  0  0  0  0
 16 39  1  0  0  0  0
 16 40  1  0  0  0  0
 17 18  1  0  0  0  0
 17 41  1  0  0  0  0
 17 42  1  0  0  0  0
 18 19  1  0  0  0  0
 18 43  1  0  0  0  0
 19 44  1  0  0  0  0
 19 45  1  0  0  0  0
 19 46  1  0  0  0  0
M  END
> <s_m_source_file>
AV-unprocessed.smi

> <i_m_source_file_index>
3348

> <i_lp_mmshare_version>
43012

> <i_f3d_flags>
0

> <s_epik_input>
bjFbY0hdW2NIXVtjSF1uMVtDSDJdW0NAQEhdKFtDSDNdKVtOSF1bQ0gyXVtDSDJdT1tDQEBIXTJbQ0gyXVtDSDJdW0NIMl1bQ0gyXVtDQEhdMltDSDNd

> <s_epik_cmdline>
J2VwaWtfcHl0aG9uJywgJy1waCcsICc3LjAnLCAnLXRuJywgJzgnLCAnLW1hJywgJzIwMCcsICctbWV0YWxfYmluZGluZycsICctaW1hZScsICc8aW5maWxlLm1hZT4nLCAnLW9tYWUnLCAnPG91dGZpbGUubWFlPic=

> <r_lp_tautomer_probability>
1

> <r_epik_Ionization_Penalty>
2.46945

> <r_epik_Ionization_Penalty_Charging>
0

> <r_epik_Ionization_Penalty_Neutral>
2.46945

> <r_epik_State_Penalty>
2.6322

> <r_epik_Charging_Adjusted_Penalty>
2.6322

> <i_epik_Tot_Q>
0

> <i_epik_Tot_abs_Q>
0

> <r_epik_Metal_State_Penalty>
2.63217

> <b_epik_Metal_Only>
0

> <s_lp_Force_Field>
OPLS_2005

> <r_lp_Energy>
18.1509

> <b_lp_Chiralities_Consistent>
1

> <s_lp_Variant>
AV-unprocessed.smi:3348-11

> <Gold.Version>
5.8.1

> <Gold.Id.Protein>
6NUR|6NUR_protein|mol2

> <Gold.PLP.Fitness>
57.9937

> <Gold.PLP.PLP>
-53.3633

> <Gold.PLP.part.hbond>
-1.8996

> <Gold.PLP.part.metal>
0.0000

> <Gold.PLP.part.buried>
-5.0286

> <Gold.PLP.part.nonpolar>
-46.0992

> <Gold.PLP.part.repulsive>
0.0987

> <Gold.PLP.ligand.clash>
0.0000

> <Gold.PLP.ligand.torsion>
0.9056

> <Gold.PLP.Chemscore.Hbond>
2.0000

> <Gold.PLP.Chemscore.CHOScore>
0.0000

> <Gold.PLP.Chemscore.Metal>
0.0000

> <Gold.Chemscore.Hbonds>
donor molecule, donor type, donor heavy atom, donor atom, acceptor molecule, acceptor atom, score
      L1  H     9    29       P1  8028  0.98
      P1  H  7989  7998       L1     8  1.00
      L1  C     5    26       P1  7948  0.06

> <Gold.PLP.Chemscore.Internal.Correction>
0.4416

> <Gold.Rescore>
     Score         DG    S(hbond)    S(metal)    S(lipo)     H(rot)  DE(clash)    DE(int)     intcor
     21.37     -24.00       1.99        0.00     139.26       1.72       0.06       2.57       ----

> <Gold.Chemscore.Fitness>
21.3702

> <Gold.Chemscore.DG>
-23.9955

> <Gold.Chemscore.ZeroCoef>
-5.4800

> <Gold.Chemscore.Hbond>
1.9865

> <Gold.Chemscore.Metal>
0.0000

> <Gold.Chemscore.Lipo>
139.2585

> <Gold.Chemscore.Internal_Hbond>
0.0000

> <Gold.Chemscore.DEClash>
0.0575

> <Gold.Chemscore.DEInternal>
2.5679

> <Gold.Chemscore.Rot>
1.7237

> <Gold.Chemscore.Internal.Correction>
   9.000000E+99

> <Gold.Chemscore.Hbonds>
donor molecule, donor type, donor heavy atom, donor atom, acceptor molecule, acceptor atom, score
      L1  H     9    29       P1  8028  0.92
      P1  H  7989  7998       L1     8  0.39

> <Gold.Chemscore.Hbond.Weighted>
-6.6348

> <Gold.Chemscore.Metal.Weighted>
-0.0000

> <Gold.Chemscore.Lipo.Weighted>
-16.2932

> <Gold.Chemscore.Internal_Hbond.Weighted>
0.0000

> <Gold.Chemscore.DEClash.Weighted>
0.0575

> <Gold.Chemscore.DEInternal.Weighted>
2.5679

> <Gold.Chemscore.Rot.Weighted>
4.4126

> <Gold.Chemscore.Internal.Correction.Weighted>
   9.000000E+99

> <Gold.Protein.RotatedTorsions>
[ 6907 6896 6895 6894 ] final -137.83 input  -60.11 | X-H torsion
[ 7974 7965 7964 7962 ] final  -99.46 input  175.53 | X-H torsion
[ 8008 7997 7996 7995 ] final  -38.24 input   59.86 | X-H torsion
[ 10167 10162 10161 10158 ] final  131.22 input  -65.29 | X-H torsion
[ 10718 10713 10712 10709 ] final  -18.17 input   66.30 | X-H torsion
[ 10763 10752 10751 10750 ] final   92.42 input  -60.55 | X-H torsion
[ 11005 11000 10999 10996 ] final  -57.30 input  -57.11 | X-H torsion

> <Gold.Protein.ActiveResidues>
 VAL166  LYS551  ARG553  GLY616  TRP617  ASP618  TYR619  PRO620  LYS621  CYS622 
 ASP623  PHE694  ASN695  SER759  ASP760  ASP761  ALA762  ILE779  LEU786  VAL792 
 PHE793  MET794  SER795  GLU796  ALA797  LYS798  CYS799  TRP800  GLU811  SER814 

> <Gold.Protein.RotatedAtoms>
  151.0274  133.5821  159.2664 H   0  0  0  0  0  0  0  0  0  0  0  0  # atno 6907 bound_to 6896
  151.2915  135.0742  159.9216 H   0  0  0  0  0  0  0  0  0  0  0  0  # atno 6908 bound_to 6896
  152.5337  133.9971  159.7932 H   0  0  0  0  0  0  0  0  0  0  0  0  # atno 6909 bound_to 6896
  145.3072  140.9392  143.2790 H   0  0  0  0  0  0  0  0  0  0  0  0  # atno 7974 bound_to 7965
  154.4040  140.1583  156.2668 H   0  0  0  0  0  0  0  0  0  0  0  0  # atno 8008 bound_to 7997
  155.8988  140.3434  155.5989 H   0  0  0  0  0  0  0  0  0  0  0  0  # atno 8009 bound_to 7997
  155.7472  140.0800  157.2209 H   0  0  0  0  0  0  0  0  0  0  0  0  # atno 8010 bound_to 7997
  139.5394  144.6715  151.4677 H   0  0  0  0  0  0  0  0  0  0  0  0  # atno 10167 bound_to 10162
  156.5632  130.4731  149.6397 H   0  0  0  0  0  0  0  0  0  0  0  0  # atno 10718 bound_to 10713
  153.2190  135.4362  155.0467 H   0  0  0  0  0  0  0  0  0  0  0  0  # atno 10763 bound_to 10752
  154.8240  135.3351  154.6955 H   0  0  0  0  0  0  0  0  0  0  0  0  # atno 10764 bound_to 10752
  153.7388  135.7006  153.5027 H   0  0  0  0  0  0  0  0  0  0  0  0  # atno 10765 bound_to 10752
  141.1158  133.6610  156.4749 H   0  0  0  0  0  0  0  0  0  0  0  0  # atno 11005 bound_to 11000
  144.9045  139.4607  143.6616 LP  0  0  0  0  0  0  0  0  0  0  0  0  # atno 17320 bound_to 7965
  146.3131  139.7818  142.9004 LP  0  0  0  0  0  0  0  0  0  0  0  0  # atno 17321 bound_to 7965
  140.6616  143.8486  150.6894 LP  0  0  0  0  0  0  0  0  0  0  0  0  # atno 17342 bound_to 10162
  140.1882  143.4058  152.1883 LP  0  0  0  0  0  0  0  0  0  0  0  0  # atno 17343 bound_to 10162
  156.2780  130.7055  151.1871 LP  0  0  0  0  0  0  0  0  0  0  0  0  # atno 17370 bound_to 10713
  157.7364  131.0563  150.5416 LP  0  0  0  0  0  0  0  0  0  0  0  0  # atno 17371 bound_to 10713
  140.4648  134.6808  157.5102 LP  0  0  0  0  0  0  0  0  0  0  0  0  # atno 17394 bound_to 11000
  140.0080  134.6734  155.9424 LP  0  0  0  0  0  0  0  0  0  0  0  0  # atno 17395 bound_to 11000

$$$$
