AV-unprocessed.smi:3030|AV-procd|sdf|11540|dock1
  -GOLD-   2272016483D 1   1.00000     0.00000
 Structure written by MMmdl.
 52 53  0  0  0  0  0  0  0  0  1 V2000
  148.7918  131.4685  161.9418 C   0  0  0  0  0  0  0  0  0  0  0  0
  147.5823  132.0370  161.1916 C   0  0  0  0  0  0  0  0  0  0  0  0
  147.5156  133.4874  161.2960 N   0  0  0  0  0  0  0  0  0  0  0  0
  147.3907  134.1175  162.5296 C   0  0  0  0  0  0  0  0  0  0  0  0
  147.2629  135.4491  162.6871 C   0  0  0  0  0  0  0  0  0  0  0  0
  147.2463  136.3206  161.4947 C   0  0  0  0  0  0  0  0  0  0  0  0
  147.1315  137.5415  161.6026 O   0  0  0  0  0  0  0  0  0  0  0  0
  147.3745  135.6468  160.1751 C   0  0  0  0  0  0  0  0  0  0  0  0
  147.3653  136.4850  159.0478 N   0  0  0  0  0  0  0  0  0  0  0  0
  148.2118  137.4752  158.7109 C   0  0  0  0  0  0  0  0  0  0  0  0
  149.2042  137.8267  159.3480 O   0  0  0  0  0  0  0  0  0  0  0  0
  147.8371  138.0478  157.5583 N   0  0  0  0  0  0  0  0  0  0  0  0
  148.5181  139.1621  156.9013 C   0  0  1  0  0  0  0  0  0  0  0  0
  149.7342  138.6193  156.1191 C   0  0  0  0  0  0  0  0  0  0  0  0
  150.4806  139.7118  155.3309 C   0  0  2  0  0  0  0  0  0  0  0  0
  151.3037  140.6414  156.2401 C   0  0  0  0  0  0  0  0  0  0  0  0
  149.5017  140.4792  154.4240 C   0  0  0  0  0  0  0  0  0  0  0  0
  148.2984  141.0381  155.2004 C   0  0  0  0  0  0  0  0  0  0  0  0
  147.5402  139.9310  155.9707 C   0  0  2  0  0  0  0  0  0  0  0  0
  146.2603  140.4513  156.6924 C   0  0  0  0  0  0  0  0  0  0  0  0
  145.2130  140.9994  155.7077 C   0  0  0  0  0  0  0  0  0  0  0  0
  146.5391  141.4714  157.8119 C   0  0  0  0  0  0  0  0  0  0  0  0
  147.5001  134.2949  160.1605 C   0  0  0  0  0  0  0  0  0  0  0  0
  148.8307  130.3834  161.8470 H   0  0  0  0  0  0  0  0  0  0  0  0
  148.7449  131.7089  163.0042 H   0  0  0  0  0  0  0  0  0  0  0  0
  149.7252  131.8707  161.5471 H   0  0  0  0  0  0  0  0  0  0  0  0
  147.6299  131.7499  160.1404 H   0  0  0  0  0  0  0  0  0  0  0  0
  146.6637  131.6005  161.5856 H   0  0  0  0  0  0  0  0  0  0  0  0
  147.4105  133.4466  163.3763 H   0  0  0  0  0  0  0  0  0  0  0  0
  147.1729  135.8952  163.6668 H   0  0  0  0  0  0  0  0  0  0  0  0
  146.6133  136.3008  158.3994 H   0  0  0  0  0  0  0  0  0  0  0  0
  147.0102  137.6925  157.1009 H   0  0  0  0  0  0  0  0  0  0  0  0
  148.8833  139.8540  157.6610 H   0  0  0  0  0  0  0  0  0  0  0  0
  150.4262  138.1186  156.7980 H   0  0  0  0  0  0  0  0  0  0  0  0
  149.3949  137.8537  155.4196 H   0  0  0  0  0  0  0  0  0  0  0  0
  151.1977  139.2088  154.6808 H   0  0  0  0  0  0  0  0  0  0  0  0
  150.6772  141.1950  156.9388 H   0  0  0  0  0  0  0  0  0  0  0  0
  151.8619  141.3696  155.6511 H   0  0  0  0  0  0  0  0  0  0  0  0
  152.0264  140.0732  156.8262 H   0  0  0  0  0  0  0  0  0  0  0  0
  150.0202  141.2877  153.9079 H   0  0  0  0  0  0  0  0  0  0  0  0
  149.1376  139.8087  153.6446 H   0  0  0  0  0  0  0  0  0  0  0  0
  148.6405  141.8112  155.8879 H   0  0  0  0  0  0  0  0  0  0  0  0
  147.6343  141.5332  154.4931 H   0  0  0  0  0  0  0  0  0  0  0  0
  147.1988  139.2113  155.2244 H   0  0  0  0  0  0  0  0  0  0  0  0
  145.7805  139.5958  157.1676 H   0  0  0  0  0  0  0  0  0  0  0  0
  145.5381  141.9302  155.2433 H   0  0  0  0  0  0  0  0  0  0  0  0
  144.2713  141.2046  156.2173 H   0  0  0  0  0  0  0  0  0  0  0  0
  145.0032  140.2825  154.9135 H   0  0  0  0  0  0  0  0  0  0  0  0
  146.9759  142.3909  157.4232 H   0  0  0  0  0  0  0  0  0  0  0  0
  147.2143  141.0707  158.5674 H   0  0  0  0  0  0  0  0  0  0  0  0
  145.6159  141.7436  158.3239 H   0  0  0  0  0  0  0  0  0  0  0  0
  147.6142  133.7241  159.2532 H   0  0  0  0  0  0  0  0  0  0  0  0
  1  2  1  0  0  0  0
  1 24  1  0  0  0  0
  1 25  1  0  0  0  0
  1 26  1  0  0  0  0
  2  3  1  0  0  0  0
  2 27  1  0  0  0  0
  2 28  1  0  0  0  0
  3 23  1  0  0  0  0
  3  4  1  0  0  0  0
  4  5  2  0  0  0  0
  4 29  1  0  0  0  0
  5  6  1  0  0  0  0
  5 30  1  0  0  0  0
  6  7  2  0  0  0  0
  6  8  1  0  0  0  0
  8  9  1  0  0  0  0
  8 23  2  0  0  0  0
  9 10  1  0  0  0  0
  9 31  1  0  0  0  0
 10 11  2  0  0  0  0
 10 12  1  0  0  0  0
 12 13  1  0  0  0  0
 12 32  1  0  0  0  0
 13 19  1  0  0  0  0
 13 14  1  0  0  0  0
 13 33  1  0  0  0  0
 14 15  1  0  0  0  0
 14 34  1  0  0  0  0
 14 35  1  0  0  0  0
 15 16  1  0  0  0  0
 15 17  1  0  0  0  0
 15 36  1  0  0  0  0
 16 37  1  0  0  0  0
 16 38  1  0  0  0  0
 16 39  1  0  0  0  0
 17 18  1  0  0  0  0
 17 40  1  0  0  0  0
 17 41  1  0  0  0  0
 18 19  1  0  0  0  0
 18 42  1  0  0  0  0
 18 43  1  0  0  0  0
 19 20  1  0  0  0  0
 19 44  1  0  0  0  0
 20 21  1  0  0  0  0
 20 22  1  0  0  0  0
 20 45  1  0  0  0  0
 21 46  1  0  0  0  0
 21 47  1  0  0  0  0
 21 48  1  0  0  0  0
 22 49  1  0  0  0  0
 22 50  1  0  0  0  0
 22 51  1  0  0  0  0
 23 52  1  0  0  0  0
M  END
> <s_m_source_file>
AV-unprocessed.smi

> <i_m_source_file_index>
3030

> <i_lp_mmshare_version>
43012

> <i_f3d_flags>
0

> <s_epik_input>
W0NIM11bQ0gyXW4xW2NIXVtjSF1jKD1PKWMoW2NIXTEpW05IXUMoPU8pW05IXVtDQEBIXTJbQ0gyXVtDQEBIXShbQ0gzXSlbQ0gyXVtDSDJdW0NASF0yW0NIXShbQ0gzXSlbQ0gzXQ==

> <s_epik_cmdline>
J2VwaWtfcHl0aG9uJywgJy1waCcsICc3LjAnLCAnLXRuJywgJzgnLCAnLW1hJywgJzIwMCcsICctbWV0YWxfYmluZGluZycsICctaW1hZScsICc8aW5maWxlLm1hZT4nLCAnLW9tYWUnLCAnPG91dGZpbGUubWFlPic=

> <r_lp_tautomer_probability>
1

> <r_epik_Ionization_Penalty>
0.00147933

> <r_epik_Ionization_Penalty_Charging>
0.00145753

> <r_epik_Ionization_Penalty_Neutral>
2.17987e-05

> <r_epik_State_Penalty>
0.00097457

> <r_epik_Charging_Adjusted_Penalty>
0.0024321

> <i_epik_Tot_Q>
0

> <i_epik_Tot_abs_Q>
0

> <r_epik_Metal_State_Penalty>
-0

> <b_epik_Metal_Only>
0

> <s_lp_Force_Field>
OPLS_2005

> <r_lp_Energy>
11.4945

> <b_lp_Chiralities_Consistent>
1

> <s_lp_Variant>
AV-unprocessed.smi:3030-8

> <Gold.Version>
5.8.1

> <Gold.Id.Protein>
6NUR|6NUR_protein|mol2

> <Gold.PLP.Fitness>
39.0349

> <Gold.PLP.PLP>
-36.0083

> <Gold.PLP.part.hbond>
-3.2973

> <Gold.PLP.part.metal>
0.0000

> <Gold.PLP.part.buried>
-3.0737

> <Gold.PLP.part.nonpolar>
-28.8275

> <Gold.PLP.part.repulsive>
0.1372

> <Gold.PLP.ligand.clash>
0.0000

> <Gold.PLP.ligand.torsion>
0.9252

> <Gold.PLP.Chemscore.Hbond>
1.6000

> <Gold.PLP.Chemscore.CHOScore>
0.0000

> <Gold.PLP.Chemscore.Metal>
0.0000

> <Gold.Chemscore.Hbonds>
donor molecule, donor type, donor heavy atom, donor atom, acceptor molecule, acceptor atom, score
      P1  H  6931  6943       L1     7  0.66
      P1  H  6934  6947       L1     7  0.90

> <Gold.PLP.Chemscore.Internal.Correction>
0.0771

> <Gold.Rescore>
     Score         DG    S(hbond)    S(metal)    S(lipo)     H(rot)  DE(clash)    DE(int)     intcor
     15.23     -16.19       1.68        0.00      71.23       1.27       0.03       0.93       ----

> <Gold.Chemscore.Fitness>
15.2307

> <Gold.Chemscore.DG>
-16.1866

> <Gold.Chemscore.ZeroCoef>
-5.4800

> <Gold.Chemscore.Hbond>
1.6825

> <Gold.Chemscore.Metal>
0.0000

> <Gold.Chemscore.Lipo>
71.2336

> <Gold.Chemscore.Internal_Hbond>
0.0000

> <Gold.Chemscore.DEClash>
0.0288

> <Gold.Chemscore.DEInternal>
0.9271

> <Gold.Chemscore.Rot>
1.2685

> <Gold.Chemscore.Internal.Correction>
   9.000000E+99

> <Gold.Chemscore.Hbonds>
donor molecule, donor type, donor heavy atom, donor atom, acceptor molecule, acceptor atom, score
      P1  H  6931  6943       L1     7  0.34
      P1  H  6934  6947       L1     7  0.87

> <Gold.Chemscore.Hbond.Weighted>
-5.6197

> <Gold.Chemscore.Metal.Weighted>
-0.0000

> <Gold.Chemscore.Lipo.Weighted>
-8.3343

> <Gold.Chemscore.Internal_Hbond.Weighted>
0.0000

> <Gold.Chemscore.DEClash.Weighted>
0.0288

> <Gold.Chemscore.DEInternal.Weighted>
0.9271

> <Gold.Chemscore.Rot.Weighted>
3.2474

> <Gold.Chemscore.Internal.Correction.Weighted>
   9.000000E+99

> <Gold.Protein.RotatedTorsions>
[ 6907 6896 6895 6894 ] final -142.39 input  -60.11 | X-H torsion
[ 7974 7965 7964 7962 ] final -136.12 input  175.53 | X-H torsion
[ 8008 7997 7996 7995 ] final  144.68 input   59.86 | X-H torsion
[ 10167 10162 10161 10158 ] final -125.50 input  -65.29 | X-H torsion
[ 10718 10713 10712 10709 ] final  -29.18 input   66.30 | X-H torsion
[ 10763 10752 10751 10750 ] final -115.99 input  -60.55 | X-H torsion
[ 11005 11000 10999 10996 ] final    4.71 input  -57.11 | X-H torsion

> <Gold.Protein.ActiveResidues>
 VAL166  LYS551  ARG553  GLY616  TRP617  ASP618  TYR619  PRO620  LYS621  CYS622 
 ASP623  PHE694  ASN695  SER759  ASP760  ASP761  ALA762  ILE779  LEU786  VAL792 
 PHE793  MET794  SER795  GLU796  ALA797  LYS798  CYS799  TRP800  GLU811  SER814 

> <Gold.Protein.RotatedAtoms>
  151.0864  133.5350  159.2617 H   0  0  0  0  0  0  0  0  0  0  0  0  # atno 6907 bound_to 6896
  151.2233  135.0526  159.8968 H   0  0  0  0  0  0  0  0  0  0  0  0  # atno 6908 bound_to 6896
  152.5429  134.0664  159.8228 H   0  0  0  0  0  0  0  0  0  0  0  0  # atno 6909 bound_to 6896
  144.8955  140.6700  143.5118 H   0  0  0  0  0  0  0  0  0  0  0  0  # atno 7974 bound_to 7965
  156.2902  140.2229  156.5092 H   0  0  0  0  0  0  0  0  0  0  0  0  # atno 8008 bound_to 7997
  154.7623  140.0472  157.1005 H   0  0  0  0  0  0  0  0  0  0  0  0  # atno 8009 bound_to 7997
  154.9975  140.3097  155.4884 H   0  0  0  0  0  0  0  0  0  0  0  0  # atno 8010 bound_to 7997
  139.9814  143.5738  152.2377 H   0  0  0  0  0  0  0  0  0  0  0  0  # atno 10167 bound_to 10162
  156.4157  130.4416  149.7220 H   0  0  0  0  0  0  0  0  0  0  0  0  # atno 10718 bound_to 10713
  154.8502  135.4361  154.1750 H   0  0  0  0  0  0  0  0  0  0  0  0  # atno 10763 bound_to 10752
  153.2855  135.6957  153.7350 H   0  0  0  0  0  0  0  0  0  0  0  0  # atno 10764 bound_to 10752
  153.6538  135.3447  155.3082 H   0  0  0  0  0  0  0  0  0  0  0  0  # atno 10765 bound_to 10752
  140.5789  134.0032  155.8039 H   0  0  0  0  0  0  0  0  0  0  0  0  # atno 11005 bound_to 11000
  145.3708  139.1659  143.4333 LP  0  0  0  0  0  0  0  0  0  0  0  0  # atno 17320 bound_to 7965
  146.3079  140.3779  142.8681 LP  0  0  0  0  0  0  0  0  0  0  0  0  # atno 17321 bound_to 7965
  139.6407  144.7654  151.2345 LP  0  0  0  0  0  0  0  0  0  0  0  0  # atno 17342 bound_to 10162
  140.7488  143.6322  150.8412 LP  0  0  0  0  0  0  0  0  0  0  0  0  # atno 17343 bound_to 10162
  156.4181  130.7755  151.2771 LP  0  0  0  0  0  0  0  0  0  0  0  0  # atno 17370 bound_to 10713
  157.7508  131.0191  150.3654 LP  0  0  0  0  0  0  0  0  0  0  0  0  # atno 17371 bound_to 10713
  141.1009  133.9769  157.3080 LP  0  0  0  0  0  0  0  0  0  0  0  0  # atno 17394 bound_to 11000
  139.9327  135.0199  156.8453 LP  0  0  0  0  0  0  0  0  0  0  0  0  # atno 17395 bound_to 11000

$$$$
