AV-unprocessed.smi:1942|AV-procd|sdf|7850|dock9
  -GOLD-   22720 9593D 1   1.00000     0.00000
 Structure written by MMmdl.
 36 38  0  0  0  0  0  0  0  0  2 V2000
  147.0027  139.7081  155.6644 O   0  0  0  0  0  0  0  0  0  0  0  0
  146.5771  140.7942  155.2712 C   0  0  0  0  0  0  0  0  0  0  0  0
  145.2188  141.2574  155.5775 C   0  0  0  0  0  0  0  0  0  0  0  0
  144.7740  142.4619  155.1674 C   0  0  0  0  0  0  0  0  0  0  0  0
  145.6348  143.3373  154.4076 C   0  0  0  0  0  0  0  0  0  0  0  0
  146.8741  142.9119  154.1161 C   0  0  0  0  0  0  0  0  0  0  0  0
  147.3446  141.6507  154.5302 N   0  0  0  0  0  0  0  0  0  0  0  0
  148.7174  141.2943  154.1455 C   0  0  0  0  0  0  0  0  0  0  0  0
  149.6739  141.2329  155.2999 C   0  0  0  0  0  0  0  0  0  0  0  0
  150.0018  142.2545  156.1433 N   0  3  0  0  0  0  0  0  0  0  0  0
  150.9169  141.8090  157.0968 C   0  0  0  0  0  0  0  0  0  0  0  0
  151.5346  142.4785  158.1483 C   0  0  0  0  0  0  0  0  0  0  0  0
  152.4245  141.7268  158.9434 C   0  0  0  0  0  0  0  0  0  0  0  0
  153.2268  142.4896  160.2664 Cl  0  0  0  0  0  0  0  0  0  0  0  0
  152.6707  140.3640  158.6768 C   0  0  0  0  0  0  0  0  0  0  0  0
  152.0389  139.6962  157.6072 C   0  0  0  0  0  0  0  0  0  0  0  0
  151.1589  140.4468  156.8277 C   0  0  0  0  0  0  0  0  0  0  0  0
  150.3703  140.1348  155.7132 N   0  0  0  0  0  0  0  0  0  0  0  0
  150.3873  138.7667  155.1701 C   0  0  0  0  0  0  0  0  0  0  0  0
  151.7922  138.3140  154.7379 C   0  0  0  0  0  0  0  0  0  0  0  0
  151.7562  137.0389  154.1322 O   0  0  0  0  0  0  0  0  0  0  0  0
  144.5604  140.6158  156.1449 H   0  0  0  0  0  0  0  0  0  0  0  0
  143.7682  142.7742  155.4074 H   0  0  0  0  0  0  0  0  0  0  0  0
  145.2904  144.3087  154.0839 H   0  0  0  0  0  0  0  0  0  0  0  0
  147.5822  143.5054  153.5555 H   0  0  0  0  0  0  0  0  0  0  0  0
  148.7423  140.3366  153.6233 H   0  0  0  0  0  0  0  0  0  0  0  0
  149.0882  142.0174  153.4183 H   0  0  0  0  0  0  0  0  0  0  0  0
  151.3467  143.5227  158.3516 H   0  0  0  0  0  0  0  0  0  0  0  0
  153.3595  139.8175  159.3046 H   0  0  0  0  0  0  0  0  0  0  0  0
  152.2414  138.6541  157.4100 H   0  0  0  0  0  0  0  0  0  0  0  0
  149.9594  138.0805  155.9009 H   0  0  0  0  0  0  0  0  0  0  0  0
  149.7149  138.7488  154.3118 H   0  0  0  0  0  0  0  0  0  0  0  0
  152.2144  139.0271  154.0296 H   0  0  0  0  0  0  0  0  0  0  0  0
  152.4646  138.2783  155.5955 H   0  0  0  0  0  0  0  0  0  0  0  0
  151.2419  137.0964  153.3413 H   0  0  0  0  0  0  0  0  0  0  0  0
  149.6222  143.1896  156.0693 H   0  0  0  0  0  0  0  0  0  0  0  0
  1  2  2  0  0  0  0
  2  7  1  0  0  0  0
  2  3  1  0  0  0  0
  3  4  2  0  0  0  0
  3 22  1  0  0  0  0
  4  5  1  0  0  0  0
  4 23  1  0  0  0  0
  5  6  2  0  0  0  0
  5 24  1  0  0  0  0
  6  7  1  0  0  0  0
  6 25  1  0  0  0  0
  7  8  1  0  0  0  0
  8  9  1  0  0  0  0
  8 26  1  0  0  0  0
  8 27  1  0  0  0  0
  9 18  1  0  0  0  0
  9 10  2  0  0  0  0
 10 11  1  0  0  0  0
 10 36  1  0  0  0  0
 11 17  2  0  0  0  0
 11 12  1  0  0  0  0
 12 13  2  0  0  0  0
 12 28  1  0  0  0  0
 13 14  1  0  0  0  0
 13 15  1  0  0  0  0
 15 16  2  0  0  0  0
 15 29  1  0  0  0  0
 16 17  1  0  0  0  0
 16 30  1  0  0  0  0
 17 18  1  0  0  0  0
 18 19  1  0  0  0  0
 19 20  1  0  0  0  0
 19 31  1  0  0  0  0
 19 32  1  0  0  0  0
 20 21  1  0  0  0  0
 20 33  1  0  0  0  0
 20 34  1  0  0  0  0
 21 35  1  0  0  0  0
M  CHG  1  10   1
M  END
> <s_m_source_file>
AV-unprocessed.smi

> <i_m_source_file_index>
1942

> <i_lp_mmshare_version>
43012

> <i_f3d_flags>
0

> <s_epik_input>
Tz1jMVtjSF1bY0hdW2NIXVtjSF1uMVtDSDJdYyhuMiluKFtDSDJdW0NIMl1bT0hdKWMoYzIzKVtjSF1bY0hdYyhDbClbY0hdMw==

> <s_epik_cmdline>
J2VwaWtfcHl0aG9uJywgJy1waCcsICc3LjAnLCAnLXRuJywgJzgnLCAnLW1hJywgJzIwMCcsICctbWV0YWxfYmluZGluZycsICctaW1hZScsICc8aW5maWxlLm1hZT4nLCAnLW9tYWUnLCAnPG91dGZpbGUubWFlPic=

> <r_lp_tautomer_probability>
1

> <r_epik_Ionization_Penalty>
1.62531

> <r_epik_Ionization_Penalty_Charging>
1.62531

> <r_epik_Ionization_Penalty_Neutral>
5.76694e-08

> <r_epik_State_Penalty>
1.72539

> <r_epik_Charging_Adjusted_Penalty>
3.3507

> <i_epik_Tot_Q>
1

> <i_epik_Tot_abs_Q>
1

> <r_epik_Metal_State_Penalty>
5.78505

> <b_epik_Metal_Only>
0

> <s_lp_Force_Field>
OPLS_2005

> <r_lp_Energy>
19.9382

> <b_lp_Chiralities_Consistent>
1

> <s_lp_Variant>
AV-unprocessed.smi:1942-2

> <Gold.Version>
5.8.1

> <Gold.Id.Protein>
6NUR|6NUR_protein|mol2

> <Gold.PLP.Fitness>
55.9063

> <Gold.PLP.PLP>
-44.4785

> <Gold.PLP.part.hbond>
-3.0000

> <Gold.PLP.part.metal>
0.0000

> <Gold.PLP.part.buried>
-3.4521

> <Gold.PLP.part.nonpolar>
-37.9640

> <Gold.PLP.part.repulsive>
0.1213

> <Gold.PLP.ligand.clash>
0.0000

> <Gold.PLP.ligand.torsion>
0.0763

> <Gold.PLP.Chemscore.Hbond>
3.5676

> <Gold.PLP.Chemscore.CHOScore>
0.2896

> <Gold.PLP.Chemscore.Metal>
0.0000

> <Gold.Chemscore.Hbonds>
donor molecule, donor type, donor heavy atom, donor atom, acceptor molecule, acceptor atom, score
      L1  H    10    36       P1  8028  2.00
      L1  H    21    35       P1  7949  0.48
      P1  H 10752 10764       L1    21  0.94
      L1  C     6    25       P1  8028  0.23

> <Gold.PLP.Chemscore.Internal.Correction>
0.0087

> <Gold.Rescore>
     Score         DG    S(hbond)    S(metal)    S(lipo)     H(rot)  DE(clash)    DE(int)     intcor
     18.02     -18.36       2.29        0.00      95.76       2.33       0.13       0.21       ----

> <Gold.Chemscore.Fitness>
18.0242

> <Gold.Chemscore.DG>
-18.3589

> <Gold.Chemscore.ZeroCoef>
-5.4800

> <Gold.Chemscore.Hbond>
2.2892

> <Gold.Chemscore.Metal>
0.0000

> <Gold.Chemscore.Lipo>
95.7641

> <Gold.Chemscore.Internal_Hbond>
0.0000

> <Gold.Chemscore.DEClash>
0.1271

> <Gold.Chemscore.DEInternal>
0.2076

> <Gold.Chemscore.Rot>
2.3326

> <Gold.Chemscore.Internal.Correction>
   9.000000E+99

> <Gold.Chemscore.Hbonds>
donor molecule, donor type, donor heavy atom, donor atom, acceptor molecule, acceptor atom, score
      L1  H    10    36       P1  8028  1.00
      L1  H    21    35       P1  7949  0.29
      P1  H 10752 10764       L1    21  0.68

> <Gold.Chemscore.Hbond.Weighted>
-7.6459

> <Gold.Chemscore.Metal.Weighted>
-0.0000

> <Gold.Chemscore.Lipo.Weighted>
-11.2044

> <Gold.Chemscore.Internal_Hbond.Weighted>
0.0000

> <Gold.Chemscore.DEClash.Weighted>
0.1271

> <Gold.Chemscore.DEInternal.Weighted>
0.2076

> <Gold.Chemscore.Rot.Weighted>
5.9714

> <Gold.Chemscore.Internal.Correction.Weighted>
   9.000000E+99

> <Gold.Protein.RotatedTorsions>
[ 6907 6896 6895 6894 ] final -147.61 input  -60.11 | X-H torsion
[ 7974 7965 7964 7962 ] final   81.09 input  175.53 | X-H torsion
[ 8008 7997 7996 7995 ] final  179.73 input   59.86 | X-H torsion
[ 10167 10162 10161 10158 ] final -132.86 input  -65.29 | X-H torsion
[ 10718 10713 10712 10709 ] final  -29.84 input   66.30 | X-H torsion
[ 10763 10752 10751 10750 ] final -101.36 input  -60.55 | X-H torsion
[ 11005 11000 10999 10996 ] final -177.07 input  -57.11 | X-H torsion

> <Gold.Protein.ActiveResidues>
 VAL166  LYS551  ARG553  GLY616  TRP617  ASP618  TYR619  PRO620  LYS621  CYS622 
 ASP623  PHE694  ASN695  SER759  ASP760  ASP761  ALA762  ILE779  LEU786  VAL792 
 PHE793  MET794  SER795  GLU796  ALA797  LYS798  CYS799  TRP800  GLU811  SER814 

> <Gold.Protein.RotatedAtoms>
  151.1581  133.4863  159.2594 H   0  0  0  0  0  0  0  0  0  0  0  0  # atno 6907 bound_to 6896
  151.1483  135.0214  159.8667 H   0  0  0  0  0  0  0  0  0  0  0  0  # atno 6908 bound_to 6896
  152.5463  134.1468  159.8555 H   0  0  0  0  0  0  0  0  0  0  0  0  # atno 6909 bound_to 6896
  145.6427  139.2429  143.2021 H   0  0  0  0  0  0  0  0  0  0  0  0  # atno 7974 bound_to 7965
  156.0400  140.1301  157.0165 H   0  0  0  0  0  0  0  0  0  0  0  0  # atno 8008 bound_to 7997
  154.4387  140.1032  156.6294 H   0  0  0  0  0  0  0  0  0  0  0  0  # atno 8009 bound_to 7997
  155.5680  140.3466  155.4510 H   0  0  0  0  0  0  0  0  0  0  0  0  # atno 8010 bound_to 7997
  139.9042  143.6571  152.2589 H   0  0  0  0  0  0  0  0  0  0  0  0  # atno 10167 bound_to 10162
  156.4073  130.4401  149.7278 H   0  0  0  0  0  0  0  0  0  0  0  0  # atno 10718 bound_to 10713
  154.7652  135.4900  153.9540 H   0  0  0  0  0  0  0  0  0  0  0  0  # atno 10763 bound_to 10752
  153.1299  135.6750  153.9203 H   0  0  0  0  0  0  0  0  0  0  0  0  # atno 10764 bound_to 10752
  153.8910  135.3121  155.3426 H   0  0  0  0  0  0  0  0  0  0  0  0  # atno 10765 bound_to 10752
  140.4451  134.6395  157.4775 H   0  0  0  0  0  0  0  0  0  0  0  0  # atno 11005 bound_to 11000
  146.1268  140.7238  142.9431 LP  0  0  0  0  0  0  0  0  0  0  0  0  # atno 17320 bound_to 7965
  144.7151  140.4181  143.7050 LP  0  0  0  0  0  0  0  0  0  0  0  0  # atno 17321 bound_to 7965
  139.6999  144.7636  151.1292 LP  0  0  0  0  0  0  0  0  0  0  0  0  # atno 17342 bound_to 10162
  140.7700  143.5472  150.9245 LP  0  0  0  0  0  0  0  0  0  0  0  0  # atno 17343 bound_to 10162
  156.4270  130.7796  151.2815 LP  0  0  0  0  0  0  0  0  0  0  0  0  # atno 17370 bound_to 10713
  157.7506  131.0165  150.3549 LP  0  0  0  0  0  0  0  0  0  0  0  0  # atno 17371 bound_to 10713
  140.0044  134.6787  155.9479 LP  0  0  0  0  0  0  0  0  0  0  0  0  # atno 17394 bound_to 11000
  141.1689  133.6537  156.4578 LP  0  0  0  0  0  0  0  0  0  0  0  0  # atno 17395 bound_to 11000

$$$$
