AV-unprocessed.smi:3181|AV-procd|sdf|12145|dock2
  -GOLD-   2272017583D 1   1.00000     0.00000
 Structure written by MMmdl.
 42 43  0  0  0  0  0  0  0  0  2 V2000
  149.9688  140.1870  157.4311 C   0  0  0  0  0  0  0  0  0  0  0  0
  149.3366  141.4502  156.8215 C   0  0  2  0  0  0  0  0  0  0  0  0
  149.6030  141.5797  155.3078 C   0  0  0  0  0  0  0  0  0  0  0  0
  148.7555  140.7159  154.5057 N   0  0  0  0  0  0  0  0  0  0  0  0
  147.7256  141.0055  153.7087 C   0  0  0  0  0  0  0  0  0  0  0  0
  147.1782  139.9431  153.1352 N   0  0  0  0  0  0  0  0  0  0  0  0
  147.9694  138.9634  153.6653 C   0  0  0  0  0  0  0  0  0  0  0  0
  148.9283  139.3733  154.4963 N   0  0  0  0  0  0  0  0  0  0  0  0
  149.8444  142.6539  157.5184 N   0  3  0  0  0  0  0  0  0  0  0  0
  151.2800  142.9654  157.3196 C   0  0  1  0  0  0  0  0  0  0  0  0
  151.5984  144.4547  157.5564 C   0  0  0  0  0  0  0  0  0  0  0  0
  151.4771  144.8388  159.0386 C   0  0  0  0  0  0  0  0  0  0  0  0
  152.3674  143.9608  159.9403 C   0  0  1  0  0  0  0  0  0  0  0  0
  152.2186  144.4031  161.4070 C   0  0  0  0  0  0  0  0  0  0  0  0
  152.0514  142.4569  159.7251 C   0  0  2  0  0  0  0  0  0  0  0  0
  152.9585  141.5306  160.5550 C   0  0  0  0  0  0  0  0  0  0  0  0
  152.1540  142.0827  158.2291 C   0  0  0  0  0  0  0  0  0  0  0  0
  149.5555  139.2794  156.9903 H   0  0  0  0  0  0  0  0  0  0  0  0
  149.7875  140.1327  158.5046 H   0  0  0  0  0  0  0  0  0  0  0  0
  151.0480  140.1695  157.2756 H   0  0  0  0  0  0  0  0  0  0  0  0
  148.2566  141.3831  156.9630 H   0  0  0  0  0  0  0  0  0  0  0  0
  149.4430  142.6087  154.9821 H   0  0  0  0  0  0  0  0  0  0  0  0
  150.6439  141.3398  155.0853 H   0  0  0  0  0  0  0  0  0  0  0  0
  147.3708  142.0121  153.5416 H   0  0  0  0  0  0  0  0  0  0  0  0
  147.8341  137.9174  153.4326 H   0  0  0  0  0  0  0  0  0  0  0  0
  149.2953  143.4535  157.2369 H   0  0  0  0  0  0  0  0  0  0  0  0
  151.5238  142.7132  156.2864 H   0  0  0  0  0  0  0  0  0  0  0  0
  152.6180  144.6555  157.2246 H   0  0  0  0  0  0  0  0  0  0  0  0
  150.9590  145.0958  156.9499 H   0  0  0  0  0  0  0  0  0  0  0  0
  151.7498  145.8879  159.1585 H   0  0  0  0  0  0  0  0  0  0  0  0
  150.4365  144.7577  159.3552 H   0  0  0  0  0  0  0  0  0  0  0  0
  153.4049  144.1340  159.6503 H   0  0  0  0  0  0  0  0  0  0  0  0
  151.2189  144.1913  161.7873 H   0  0  0  0  0  0  0  0  0  0  0  0
  152.3913  145.4747  161.5108 H   0  0  0  0  0  0  0  0  0  0  0  0
  152.9382  143.9051  162.0559 H   0  0  0  0  0  0  0  0  0  0  0  0
  151.0246  142.2769  160.0466 H   0  0  0  0  0  0  0  0  0  0  0  0
  154.0124  141.7089  160.3392 H   0  0  0  0  0  0  0  0  0  0  0  0
  152.7499  140.4825  160.3393 H   0  0  0  0  0  0  0  0  0  0  0  0
  152.8070  141.6673  161.6252 H   0  0  0  0  0  0  0  0  0  0  0  0
  151.8902  141.0340  158.0857 H   0  0  0  0  0  0  0  0  0  0  0  0
  153.1939  142.1745  157.9116 H   0  0  0  0  0  0  0  0  0  0  0  0
  149.7030  142.5075  158.5077 H   0  0  0  0  0  0  0  0  0  0  0  0
  1  2  1  0  0  0  0
  1 18  1  0  0  0  0
  1 19  1  0  0  0  0
  1 20  1  0  0  0  0
  2  3  1  0  0  0  0
  2  9  1  0  0  0  0
  2 21  1  0  0  0  0
  3  4  1  0  0  0  0
  3 22  1  0  0  0  0
  3 23  1  0  0  0  0
  4  8  1  0  0  0  0
  4  5  1  0  0  0  0
  5  6  2  0  0  0  0
  5 24  1  0  0  0  0
  6  7  1  0  0  0  0
  7  8  2  0  0  0  0
  7 25  1  0  0  0  0
  9 10  1  0  0  0  0
  9 26  1  0  0  0  0
  9 42  1  0  0  0  0
 10 17  1  0  0  0  0
 10 11  1  0  0  0  0
 10 27  1  0  0  0  0
 11 12  1  0  0  0  0
 11 28  1  0  0  0  0
 11 29  1  0  0  0  0
 12 13  1  0  0  0  0
 12 30  1  0  0  0  0
 12 31  1  0  0  0  0
 13 14  1  0  0  0  0
 13 15  1  0  0  0  0
 13 32  1  0  0  0  0
 14 33  1  0  0  0  0
 14 34  1  0  0  0  0
 14 35  1  0  0  0  0
 15 16  1  0  0  0  0
 15 17  1  0  0  0  0
 15 36  1  0  0  0  0
 16 37  1  0  0  0  0
 16 38  1  0  0  0  0
 16 39  1  0  0  0  0
 17 40  1  0  0  0  0
 17 41  1  0  0  0  0
M  CHG  1   9   1
M  END
> <s_m_source_file>
AV-unprocessed.smi

> <i_m_source_file_index>
3181

> <i_lp_mmshare_version>
43012

> <i_f3d_flags>
0

> <s_epik_input>
bjFbY0hdbltjSF1uMVtDSDJdW0NAQEhdKFtDSDNdKVtOSF1bQ0BASF0yW0NIMl1bQ0gyXVtDQEBIXShbQ0gzXSlbQ0BASF0oW0NIM10pW0NIMl0y

> <s_epik_cmdline>
J2VwaWtfcHl0aG9uJywgJy1waCcsICc3LjAnLCAnLXRuJywgJzgnLCAnLW1hJywgJzIwMCcsICctbWV0YWxfYmluZGluZycsICctaW1hZScsICc8aW5maWxlLm1hZT4nLCAnLW9tYWUnLCAnPG91dGZpbGUubWFlPic=

> <r_lp_tautomer_probability>
1

> <r_epik_Ionization_Penalty>
0.000617007

> <r_epik_Ionization_Penalty_Charging>
0.000616215

> <r_epik_Ionization_Penalty_Neutral>
7.92544e-07

> <r_epik_State_Penalty>
0.000388807

> <r_epik_Charging_Adjusted_Penalty>
0.00100502

> <i_epik_Tot_Q>
1

> <i_epik_Tot_abs_Q>
1

> <r_epik_Metal_State_Penalty>
-0

> <b_epik_Metal_Only>
0

> <s_lp_Force_Field>
OPLS_2005

> <r_lp_Energy>
23.0816

> <b_lp_Chiralities_Consistent>
1

> <s_lp_Variant>
AV-unprocessed.smi:3181-11

> <Gold.Version>
5.8.1

> <Gold.Id.Protein>
6NUR|6NUR_protein|mol2

> <Gold.PLP.Fitness>
45.6957

> <Gold.PLP.PLP>
-38.1580

> <Gold.PLP.part.hbond>
-1.0000

> <Gold.PLP.part.metal>
0.0000

> <Gold.PLP.part.buried>
-3.6433

> <Gold.PLP.part.nonpolar>
-34.4585

> <Gold.PLP.part.repulsive>
0.9993

> <Gold.PLP.ligand.clash>
0.0000

> <Gold.PLP.ligand.torsion>
0.5253

> <Gold.PLP.Chemscore.Hbond>
1.8560

> <Gold.PLP.Chemscore.CHOScore>
1.0000

> <Gold.PLP.Chemscore.Metal>
0.0000

> <Gold.Chemscore.Hbonds>
donor molecule, donor type, donor heavy atom, donor atom, acceptor molecule, acceptor atom, score
      L1  H     9    26       P1  8028  1.69
      L1  C     7    25       P1  7948  0.94

> <Gold.PLP.Chemscore.Internal.Correction>
0.0202

> <Gold.Rescore>
     Score         DG    S(hbond)    S(metal)    S(lipo)     H(rot)  DE(clash)    DE(int)     intcor
     13.82     -15.67       0.96        0.00     105.99       2.11       0.21       1.64       ----

> <Gold.Chemscore.Fitness>
13.8236

> <Gold.Chemscore.DG>
-15.6726

> <Gold.Chemscore.ZeroCoef>
-5.4800

> <Gold.Chemscore.Hbond>
0.9555

> <Gold.Chemscore.Metal>
0.0000

> <Gold.Chemscore.Lipo>
105.9947

> <Gold.Chemscore.Internal_Hbond>
0.0000

> <Gold.Chemscore.DEClash>
0.2098

> <Gold.Chemscore.DEInternal>
1.6391

> <Gold.Chemscore.Rot>
2.1095

> <Gold.Chemscore.Internal.Correction>
   9.000000E+99

> <Gold.Chemscore.Hbonds>
donor molecule, donor type, donor heavy atom, donor atom, acceptor molecule, acceptor atom, score
      L1  H     9    26       P1  8028  0.59

> <Gold.Chemscore.Hbond.Weighted>
-3.1915

> <Gold.Chemscore.Metal.Weighted>
-0.0000

> <Gold.Chemscore.Lipo.Weighted>
-12.4014

> <Gold.Chemscore.Internal_Hbond.Weighted>
0.0000

> <Gold.Chemscore.DEClash.Weighted>
0.2098

> <Gold.Chemscore.DEInternal.Weighted>
1.6391

> <Gold.Chemscore.Rot.Weighted>
5.4003

> <Gold.Chemscore.Internal.Correction.Weighted>
   9.000000E+99

> <Gold.Protein.RotatedTorsions>
[ 6907 6896 6895 6894 ] final   -7.55 input  -60.11 | X-H torsion
[ 7974 7965 7964 7962 ] final -113.16 input  175.53 | X-H torsion
[ 8008 7997 7996 7995 ] final  105.08 input   59.86 | X-H torsion
[ 10167 10162 10161 10158 ] final  115.51 input  -65.29 | X-H torsion
[ 10718 10713 10712 10709 ] final  -60.69 input   66.30 | X-H torsion
[ 10763 10752 10751 10750 ] final  179.52 input  -60.55 | X-H torsion
[ 11005 11000 10999 10996 ] final  -11.64 input  -57.11 | X-H torsion

> <Gold.Protein.ActiveResidues>
 VAL166  LYS551  ARG553  GLY616  TRP617  ASP618  TYR619  PRO620  LYS621  CYS622 
 ASP623  PHE694  ASN695  SER759  ASP760  ASP761  ALA762  ILE779  LEU786  VAL792 
 PHE793  MET794  SER795  GLU796  ALA797  LYS798  CYS799  TRP800  GLU811  SER814 

> <Gold.Protein.RotatedAtoms>
  151.4477  135.1027  159.9688 H   0  0  0  0  0  0  0  0  0  0  0  0  # atno 6907 bound_to 6896
  152.4899  133.8469  159.7192 H   0  0  0  0  0  0  0  0  0  0  0  0  # atno 6908 bound_to 6896
  150.9043  133.7018  159.2898 H   0  0  0  0  0  0  0  0  0  0  0  0  # atno 6909 bound_to 6896
  145.1353  140.8748  143.3734 H   0  0  0  0  0  0  0  0  0  0  0  0  # atno 7974 bound_to 7965
  156.1628  140.3137  155.8837 H   0  0  0  0  0  0  0  0  0  0  0  0  # atno 8008 bound_to 7997
  155.3747  140.0484  157.3062 H   0  0  0  0  0  0  0  0  0  0  0  0  # atno 8009 bound_to 7997
  154.5163  140.2182  155.9070 H   0  0  0  0  0  0  0  0  0  0  0  0  # atno 8010 bound_to 7997
  139.6312  144.7115  151.2429 H   0  0  0  0  0  0  0  0  0  0  0  0  # atno 10167 bound_to 10162
  156.0973  130.4191  150.0889 H   0  0  0  0  0  0  0  0  0  0  0  0  # atno 10718 bound_to 10713
  154.5218  135.2794  155.1256 H   0  0  0  0  0  0  0  0  0  0  0  0  # atno 10763 bound_to 10752
  154.2811  135.6285  153.5351 H   0  0  0  0  0  0  0  0  0  0  0  0  # atno 10764 bound_to 10752
  152.9938  135.5651  154.5708 H   0  0  0  0  0  0  0  0  0  0  0  0  # atno 10765 bound_to 10752
  140.7574  133.8543  155.9096 H   0  0  0  0  0  0  0  0  0  0  0  0  # atno 11005 bound_to 11000
  145.0591  139.3120  143.5890 LP  0  0  0  0  0  0  0  0  0  0  0  0  # atno 17320 bound_to 7965
  146.3510  140.0026  142.8674 LP  0  0  0  0  0  0  0  0  0  0  0  0  # atno 17321 bound_to 7965
  140.7440  143.6477  150.8277 LP  0  0  0  0  0  0  0  0  0  0  0  0  # atno 17342 bound_to 10162
  140.0102  143.5650  152.2842 LP  0  0  0  0  0  0  0  0  0  0  0  0  # atno 17343 bound_to 10162
  156.8885  130.9580  151.3591 LP  0  0  0  0  0  0  0  0  0  0  0  0  # atno 17370 bound_to 10713
  157.6136  130.8602  149.8992 LP  0  0  0  0  0  0  0  0  0  0  0  0  # atno 17371 bound_to 10713
  140.9695  134.1550  157.4588 LP  0  0  0  0  0  0  0  0  0  0  0  0  # atno 17394 bound_to 11000
  139.8777  134.9973  156.5842 LP  0  0  0  0  0  0  0  0  0  0  0  0  # atno 17395 bound_to 11000

$$$$
