AV-unprocessed.smi:2640|AV-procd|sdf|10268|dock7
  -GOLD-   2272014283D 1   1.00000     0.00000
 Structure written by MMmdl.
 42 43  0  0  0  0  0  0  0  0  2 V2000
  144.6871  136.9041  152.7993 O   0  0  0  0  0  0  0  0  0  0  0  0
  145.7391  137.0992  152.1896 C   0  0  0  0  0  0  0  0  0  0  0  0
  146.3705  138.4913  152.1580 C   0  0  0  0  0  0  0  0  0  0  0  0
  147.8015  138.4524  152.5209 N   0  3  0  0  0  0  0  0  0  0  0  0
  148.0643  138.6094  153.9638 C   0  0  0  0  0  0  0  0  0  0  0  0
  149.0695  139.7423  154.2184 C   0  0  0  0  0  0  0  0  0  0  0  0
  150.4293  139.2478  154.3149 N   0  0  0  0  0  0  0  0  0  0  0  0
  150.9064  137.9850  154.0334 C   0  0  0  0  0  0  0  0  0  0  0  0
  152.2520  137.9986  154.2648 C   0  0  0  0  0  0  0  0  0  0  0  0
  152.5096  139.3331  154.6855 C   0  0  0  0  0  0  0  0  0  0  0  0
  151.4163  140.0785  154.7138 N   0  0  0  0  0  0  0  0  0  0  0  0
  146.3995  136.1324  151.5320 N   0  0  0  0  0  0  0  0  0  0  0  0
  145.9640  134.7386  151.4115 C   0  0  2  0  0  0  0  0  0  0  0  0
  144.6223  134.7317  150.6441 C   0  0  0  0  0  0  0  0  0  0  0  0
  144.3015  133.3875  149.9674 C   0  0  0  0  0  0  0  0  0  0  0  0
  144.0754  132.2125  150.9310 C   0  0  0  0  0  0  0  0  0  0  0  0
  145.3078  131.8640  151.7831 C   0  0  0  0  0  0  0  0  0  0  0  0
  145.4889  132.7924  152.8913 N   0  0  0  0  0  0  0  0  0  0  0  0
  145.7566  134.1043  152.8075 C   0  0  0  0  0  0  0  0  0  0  0  0
  145.8328  134.7906  153.8270 O   0  0  0  0  0  0  0  0  0  0  0  0
  146.2574  138.9040  151.1548 H   0  0  0  0  0  0  0  0  0  0  0  0
  145.8412  139.1512  152.8472 H   0  0  0  0  0  0  0  0  0  0  0  0
  148.1817  137.5679  152.2152 H   0  0  0  0  0  0  0  0  0  0  0  0
  147.1233  138.8167  154.4754 H   0  0  0  0  0  0  0  0  0  0  0  0
  148.4502  137.6708  154.3640 H   0  0  0  0  0  0  0  0  0  0  0  0
  149.0243  140.4774  153.4136 H   0  0  0  0  0  0  0  0  0  0  0  0
  148.8276  140.2691  155.1428 H   0  0  0  0  0  0  0  0  0  0  0  0
  150.2578  137.1902  153.6956 H   0  0  0  0  0  0  0  0  0  0  0  0
  152.9475  137.1806  154.1488 H   0  0  0  0  0  0  0  0  0  0  0  0
  153.4518  139.7791  154.9683 H   0  0  0  0  0  0  0  0  0  0  0  0
  147.2561  136.3788  151.0575 H   0  0  0  0  0  0  0  0  0  0  0  0
  146.7179  134.1796  150.8539 H   0  0  0  0  0  0  0  0  0  0  0  0
  143.7985  135.0334  151.2936 H   0  0  0  0  0  0  0  0  0  0  0  0
  144.6602  135.4837  149.8540 H   0  0  0  0  0  0  0  0  0  0  0  0
  143.4051  133.5113  149.3589 H   0  0  0  0  0  0  0  0  0  0  0  0
  145.1001  133.1344  149.2692 H   0  0  0  0  0  0  0  0  0  0  0  0
  143.2170  132.4115  151.5740 H   0  0  0  0  0  0  0  0  0  0  0  0
  143.8076  131.3371  150.3386 H   0  0  0  0  0  0  0  0  0  0  0  0
  145.1750  130.8719  152.2153 H   0  0  0  0  0  0  0  0  0  0  0  0
  146.2104  131.8134  151.1727 H   0  0  0  0  0  0  0  0  0  0  0  0
  145.3691  132.4079  153.8173 H   0  0  0  0  0  0  0  0  0  0  0  0
  148.2742  139.1931  152.0224 H   0  0  0  0  0  0  0  0  0  0  0  0
  1  2  2  0  0  0  0
  2  3  1  0  0  0  0
  2 12  1  0  0  0  0
  3  4  1  0  0  0  0
  3 21  1  0  0  0  0
  3 22  1  0  0  0  0
  4  5  1  0  0  0  0
  4 23  1  0  0  0  0
  4 42  1  0  0  0  0
  5  6  1  0  0  0  0
  5 24  1  0  0  0  0
  5 25  1  0  0  0  0
  6  7  1  0  0  0  0
  6 26  1  0  0  0  0
  6 27  1  0  0  0  0
  7 11  1  0  0  0  0
  7  8  1  0  0  0  0
  8  9  2  0  0  0  0
  8 28  1  0  0  0  0
  9 10  1  0  0  0  0
  9 29  1  0  0  0  0
 10 11  2  0  0  0  0
 10 30  1  0  0  0  0
 12 13  1  0  0  0  0
 12 31  1  0  0  0  0
 13 19  1  0  0  0  0
 13 14  1  0  0  0  0
 13 32  1  0  0  0  0
 14 15  1  0  0  0  0
 14 33  1  0  0  0  0
 14 34  1  0  0  0  0
 15 16  1  0  0  0  0
 15 35  1  0  0  0  0
 15 36  1  0  0  0  0
 16 17  1  0  0  0  0
 16 37  1  0  0  0  0
 16 38  1  0  0  0  0
 17 18  1  0  0  0  0
 17 39  1  0  0  0  0
 17 40  1  0  0  0  0
 18 19  1  0  0  0  0
 18 41  1  0  0  0  0
 19 20  2  0  0  0  0
M  CHG  1   4   1
M  END
> <s_m_source_file>
AV-unprocessed.smi

> <i_m_source_file_index>
2640

> <i_lp_mmshare_version>
43012

> <i_f3d_flags>
0

> <s_epik_input>
Tz1DMVtOSF1bQ0gyXVtDSDJdW0NIMl1bQ0gyXVtDQEhdMVtOSF1DKD1PKVtDSDJdW05IXVtDSDJdW0NIMl1uMltjSF1bY0hdW2NIXW4y

> <s_epik_cmdline>
J2VwaWtfcHl0aG9uJywgJy1waCcsICc3LjAnLCAnLXRuJywgJzgnLCAnLW1hJywgJzIwMCcsICctbWV0YWxfYmluZGluZycsICctaW1hZScsICc8aW5maWxlLm1hZT4nLCAnLW9tYWUnLCAnPG91dGZpbGUubWFlPic=

> <r_lp_tautomer_probability>
1

> <r_epik_Ionization_Penalty>
0.245908

> <r_epik_Ionization_Penalty_Charging>
0.245903

> <r_epik_Ionization_Penalty_Neutral>
5.38378e-06

> <r_epik_State_Penalty>
0.237496

> <r_epik_Charging_Adjusted_Penalty>
0.483398

> <i_epik_Tot_Q>
1

> <i_epik_Tot_abs_Q>
1

> <r_epik_Metal_State_Penalty>
0.237698

> <b_epik_Metal_Only>
0

> <s_lp_Force_Field>
OPLS_2005

> <r_lp_Energy>
8.65948

> <b_lp_Chiralities_Consistent>
1

> <s_lp_Variant>
AV-unprocessed.smi:2640-1

> <Gold.Version>
5.8.1

> <Gold.Id.Protein>
6NUR|6NUR_protein|mol2

> <Gold.PLP.Fitness>
54.7640

> <Gold.PLP.PLP>
-39.7975

> <Gold.PLP.part.hbond>
-3.9009

> <Gold.PLP.part.metal>
0.0000

> <Gold.PLP.part.buried>
-3.0809

> <Gold.PLP.part.nonpolar>
-34.0106

> <Gold.PLP.part.repulsive>
0.4987

> <Gold.PLP.ligand.clash>
0.0000

> <Gold.PLP.ligand.torsion>
0.9637

> <Gold.PLP.Chemscore.Hbond>
4.5920

> <Gold.PLP.Chemscore.CHOScore>
1.0177

> <Gold.PLP.Chemscore.Metal>
0.0000

> <Gold.Chemscore.Hbonds>
donor molecule, donor type, donor heavy atom, donor atom, acceptor molecule, acceptor atom, score
      L1  H     4    23       P1  7948  2.00
      L1  H     4    42       P1  7957  1.00
      L1  H    12    31       P1  7948  0.50
      P1  H  7989  7998       L1    11  0.79
      L1  C     8    28       P1  7948  0.92
      L1  C     8    28       P1  7949  0.13

> <Gold.PLP.Chemscore.Internal.Correction>
0.0650

> <Gold.Rescore>
     Score         DG    S(hbond)    S(metal)    S(lipo)     H(rot)  DE(clash)    DE(int)     intcor
     15.91     -18.58       3.05        0.00      78.28       2.45       0.10       2.57       ----

> <Gold.Chemscore.Fitness>
15.9114

> <Gold.Chemscore.DG>
-18.5787

> <Gold.Chemscore.ZeroCoef>
-5.4800

> <Gold.Chemscore.Hbond>
3.0547

> <Gold.Chemscore.Metal>
0.0000

> <Gold.Chemscore.Lipo>
78.2753

> <Gold.Chemscore.Internal_Hbond>
0.0000

> <Gold.Chemscore.DEClash>
0.0961

> <Gold.Chemscore.DEInternal>
2.5712

> <Gold.Chemscore.Rot>
2.4462

> <Gold.Chemscore.Internal.Correction>
   9.000000E+99

> <Gold.Chemscore.Hbonds>
donor molecule, donor type, donor heavy atom, donor atom, acceptor molecule, acceptor atom, score
      L1  H     4    23       P1  7948  0.96
      L1  H     4    42       P1  7957  0.99
      L1  H    12    31       P1  7948  0.49
      P1  H  7989  7998       L1    11  0.06

> <Gold.Chemscore.Hbond.Weighted>
-10.2028

> <Gold.Chemscore.Metal.Weighted>
-0.0000

> <Gold.Chemscore.Lipo.Weighted>
-9.1582

> <Gold.Chemscore.Internal_Hbond.Weighted>
0.0000

> <Gold.Chemscore.DEClash.Weighted>
0.0961

> <Gold.Chemscore.DEInternal.Weighted>
2.5712

> <Gold.Chemscore.Rot.Weighted>
6.2623

> <Gold.Chemscore.Internal.Correction.Weighted>
   9.000000E+99

> <Gold.Protein.RotatedTorsions>
[ 6907 6896 6895 6894 ] final  -16.74 input  -60.11 | X-H torsion
[ 7974 7965 7964 7962 ] final   20.57 input  175.53 | X-H torsion
[ 8008 7997 7996 7995 ] final -119.96 input   59.86 | X-H torsion
[ 10167 10162 10161 10158 ] final -175.78 input  -65.29 | X-H torsion
[ 10718 10713 10712 10709 ] final  130.92 input   66.30 | X-H torsion
[ 10763 10752 10751 10750 ] final -111.18 input  -60.55 | X-H torsion
[ 11005 11000 10999 10996 ] final -170.26 input  -57.11 | X-H torsion

> <Gold.Protein.ActiveResidues>
 VAL166  LYS551  ARG553  GLY616  TRP617  ASP618  TYR619  PRO620  LYS621  CYS622 
 ASP623  PHE694  ASN695  SER759  ASP760  ASP761  ALA762  ILE779  LEU786  VAL792 
 PHE793  MET794  SER795  GLU796  ALA797  LYS798  CYS799  TRP800  GLU811  SER814 

> <Gold.Protein.RotatedAtoms>
  151.3039  135.0776  159.9248 H   0  0  0  0  0  0  0  0  0  0  0  0  # atno 6907 bound_to 6896
  152.5292  133.9805  159.7814 H   0  0  0  0  0  0  0  0  0  0  0  0  # atno 6908 bound_to 6896
  151.0096  133.5926  159.2714 H   0  0  0  0  0  0  0  0  0  0  0  0  # atno 6909 bound_to 6896
  146.2106  139.8150  142.8692 H   0  0  0  0  0  0  0  0  0  0  0  0  # atno 7974 bound_to 7965
  155.1241  140.0399  157.2758 H   0  0  0  0  0  0  0  0  0  0  0  0  # atno 8008 bound_to 7997
  154.6591  140.2587  155.7102 H   0  0  0  0  0  0  0  0  0  0  0  0  # atno 8009 bound_to 7997
  156.2611  140.2820  156.1056 H   0  0  0  0  0  0  0  0  0  0  0  0  # atno 8010 bound_to 7997
  139.5563  144.1981  152.1165 H   0  0  0  0  0  0  0  0  0  0  0  0  # atno 10167 bound_to 10162
  157.5016  131.1094  150.9419 H   0  0  0  0  0  0  0  0  0  0  0  0  # atno 10718 bound_to 10713
  154.8287  135.4537  154.0999 H   0  0  0  0  0  0  0  0  0  0  0  0  # atno 10763 bound_to 10752
  153.2291  135.6903  153.7916 H   0  0  0  0  0  0  0  0  0  0  0  0  # atno 10764 bound_to 10752
  153.7305  135.3327  155.3261 H   0  0  0  0  0  0  0  0  0  0  0  0  # atno 10765 bound_to 10752
  140.5215  134.5704  157.5049 H   0  0  0  0  0  0  0  0  0  0  0  0  # atno 11005 bound_to 11000
  145.3156  141.0231  143.3530 LP  0  0  0  0  0  0  0  0  0  0  0  0  # atno 17320 bound_to 7965
  144.8904  139.4782  143.6680 LP  0  0  0  0  0  0  0  0  0  0  0  0  # atno 17321 bound_to 7965
  140.1485  144.5136  150.6701 LP  0  0  0  0  0  0  0  0  0  0  0  0  # atno 17342 bound_to 10162
  140.6836  143.2339  151.5318 LP  0  0  0  0  0  0  0  0  0  0  0  0  # atno 17343 bound_to 10162
  157.0088  130.5628  149.5318 LP  0  0  0  0  0  0  0  0  0  0  0  0  # atno 17370 bound_to 10713
  156.0233  130.5327  150.8336 LP  0  0  0  0  0  0  0  0  0  0  0  0  # atno 17371 bound_to 10713
  139.9603  134.7464  156.0251 LP  0  0  0  0  0  0  0  0  0  0  0  0  # atno 17394 bound_to 11000
  141.1331  133.6581  156.3520 LP  0  0  0  0  0  0  0  0  0  0  0  0  # atno 17395 bound_to 11000

$$$$
