AV-unprocessed.smi:2832|AV-procd|sdf|10913|dock10
  -GOLD-   2272015363D 1   1.00000     0.00000
 Structure written by MMmdl.
 33 33  0  0  0  0  0  0  0  0  2 V2000
  148.7006  136.8810  159.2162 C   0  0  0  0  0  0  0  0  0  0  0  0
  148.7165  137.6688  157.9018 C   0  0  0  0  0  0  0  0  0  0  0  0
  150.0449  137.4975  157.1309 C   0  0  0  0  0  0  0  0  0  0  0  0
  151.2653  138.3026  157.6666 C   0  0  2  0  0  0  0  0  0  0  0  0
  151.5254  137.8993  159.1402 C   0  0  0  0  0  0  0  0  0  0  0  0
  151.0029  139.7395  157.4721 N   0  0  0  0  0  0  0  0  0  0  0  0
  150.9467  140.4995  156.3628 C   0  0  0  0  0  0  0  0  0  0  0  0
  151.2430  140.1221  155.2301 O   0  0  0  0  0  0  0  0  0  0  0  0
  150.4744  141.9382  156.5771 C   0  0  0  0  0  0  0  0  0  0  0  0
  151.2826  142.6128  157.5799 N   0  0  0  0  0  0  0  0  0  0  0  0
  151.3761  143.9650  157.8445 C   0  0  0  0  0  0  0  0  0  0  0  0
  152.2533  144.1184  158.8792 C   0  0  0  0  0  0  0  0  0  0  0  0
  152.6457  142.7866  159.1894 C   0  0  0  0  0  0  0  0  0  0  0  0
  152.0596  141.8880  158.4150 N   0  0  0  0  0  0  0  0  0  0  0  0
  152.5698  137.9773  156.8970 C   0  0  0  0  0  0  0  0  0  0  0  0
  152.5381  137.1003  156.0051 O   0  0  0  0  0  0  0  0  0  0  0  0
  153.6013  138.6046  157.2296 O   0  5  0  0  0  0  0  0  0  0  0  0
  147.7575  137.0255  159.7436 H   0  0  0  0  0  0  0  0  0  0  0  0
  149.5053  137.2026  159.8778 H   0  0  0  0  0  0  0  0  0  0  0  0
  148.8202  135.8124  159.0352 H   0  0  0  0  0  0  0  0  0  0  0  0
  147.8732  137.3473  157.2915 H   0  0  0  0  0  0  0  0  0  0  0  0
  148.5471  138.7222  158.1260 H   0  0  0  0  0  0  0  0  0  0  0  0
  150.3007  136.4371  157.1398 H   0  0  0  0  0  0  0  0  0  0  0  0
  149.8813  137.7389  156.0794 H   0  0  0  0  0  0  0  0  0  0  0  0
  151.8250  136.8530  159.2154 H   0  0  0  0  0  0  0  0  0  0  0  0
  150.6310  138.0094  159.7539 H   0  0  0  0  0  0  0  0  0  0  0  0
  152.3187  138.4948  159.5947 H   0  0  0  0  0  0  0  0  0  0  0  0
  150.7398  140.2140  158.3233 H   0  0  0  0  0  0  0  0  0  0  0  0
  150.5357  142.4991  155.6434 H   0  0  0  0  0  0  0  0  0  0  0  0
  149.4272  141.9415  156.8847 H   0  0  0  0  0  0  0  0  0  0  0  0
  150.8210  144.6979  157.2767 H   0  0  0  0  0  0  0  0  0  0  0  0
  152.5673  145.0421  159.3424 H   0  0  0  0  0  0  0  0  0  0  0  0
  153.3332  142.4483  159.9508 H   0  0  0  0  0  0  0  0  0  0  0  0
  1  2  1  0  0  0  0
  1 18  1  0  0  0  0
  1 19  1  0  0  0  0
  1 20  1  0  0  0  0
  2  3  1  0  0  0  0
  2 21  1  0  0  0  0
  2 22  1  0  0  0  0
  3  4  1  0  0  0  0
  3 23  1  0  0  0  0
  3 24  1  0  0  0  0
  4  5  1  0  0  0  0
  4  6  1  0  0  0  0
  4 15  1  0  0  0  0
  5 25  1  0  0  0  0
  5 26  1  0  0  0  0
  5 27  1  0  0  0  0
  6  7  1  0  0  0  0
  6 28  1  0  0  0  0
  7  8  2  0  0  0  0
  7  9  1  0  0  0  0
  9 10  1  0  0  0  0
  9 29  1  0  0  0  0
  9 30  1  0  0  0  0
 10 14  1  0  0  0  0
 10 11  1  0  0  0  0
 11 12  2  0  0  0  0
 11 31  1  0  0  0  0
 12 13  1  0  0  0  0
 12 32  1  0  0  0  0
 13 14  2  0  0  0  0
 13 33  1  0  0  0  0
 15 16  2  0  0  0  0
 15 17  1  0  0  0  0
M  CHG  1  17  -1
M  END
> <s_m_source_file>
AV-unprocessed.smi

> <i_m_source_file_index>
2832

> <i_lp_mmshare_version>
43012

> <i_f3d_flags>
0

> <s_epik_input>
W0NIM11bQ0gyXVtDSDJdW0NAXShbQ0gzXSkoQyg9TylbT0hdKVtOSF1DKD1PKVtDSDJdbjFbY0hdW2NIXVtjSF1uMQ==

> <s_epik_cmdline>
J2VwaWtfcHl0aG9uJywgJy1waCcsICc3LjAnLCAnLXRuJywgJzgnLCAnLW1hJywgJzIwMCcsICctbWV0YWxfYmluZGluZycsICctaW1hZScsICc8aW5maWxlLm1hZT4nLCAnLW9tYWUnLCAnPG91dGZpbGUubWFlPic=

> <r_lp_tautomer_probability>
1

> <r_epik_Ionization_Penalty>
0.000287256

> <r_epik_Ionization_Penalty_Charging>
0.00026921

> <r_epik_Ionization_Penalty_Neutral>
1.80463e-05

> <r_epik_State_Penalty>
-0

> <r_epik_Charging_Adjusted_Penalty>
0.00026921

> <i_epik_Tot_Q>
-1

> <i_epik_Tot_abs_Q>
1

> <r_epik_Metal_State_Penalty>
-0

> <b_epik_Metal_Only>
0

> <s_lp_Force_Field>
OPLS_2005

> <r_lp_Energy>
2.74442

> <b_lp_Chiralities_Consistent>
1

> <s_lp_Variant>
AV-unprocessed.smi:2832-2

> <Gold.Version>
5.8.1

> <Gold.Id.Protein>
6NUR|6NUR_protein|mol2

> <Gold.PLP.Fitness>
46.2341

> <Gold.PLP.PLP>
-29.6139

> <Gold.PLP.part.hbond>
-3.0000

> <Gold.PLP.part.metal>
0.0000

> <Gold.PLP.part.buried>
-4.4623

> <Gold.PLP.part.nonpolar>
-22.9803

> <Gold.PLP.part.repulsive>
0.0710

> <Gold.PLP.ligand.clash>
0.0000

> <Gold.PLP.ligand.torsion>
0.5003

> <Gold.PLP.Chemscore.Hbond>
4.8560

> <Gold.PLP.Chemscore.CHOScore>
1.0000

> <Gold.PLP.Chemscore.Metal>
0.0000

> <Gold.Chemscore.Hbonds>
donor molecule, donor type, donor heavy atom, donor atom, acceptor molecule, acceptor atom, score
      P1  H  7989  7998       L1     8  1.00
      P1  H  7997  8010       L1    17  1.95
      P1  H 10752 10765       L1    16  1.66
      L1  C    11    31       P1  8028  1.00

> <Gold.PLP.Chemscore.Internal.Correction>
0.0527

> <Gold.Rescore>
     Score         DG    S(hbond)    S(metal)    S(lipo)     H(rot)  DE(clash)    DE(int)     intcor
     13.22     -15.19       2.80        0.00      57.02       2.47       0.00       1.97       ----

> <Gold.Chemscore.Fitness>
13.2179

> <Gold.Chemscore.DG>
-15.1886

> <Gold.Chemscore.ZeroCoef>
-5.4800

> <Gold.Chemscore.Hbond>
2.8046

> <Gold.Chemscore.Metal>
0.0000

> <Gold.Chemscore.Lipo>
57.0179

> <Gold.Chemscore.Internal_Hbond>
0.0000

> <Gold.Chemscore.DEClash>
0.0048

> <Gold.Chemscore.DEInternal>
1.9659

> <Gold.Chemscore.Rot>
2.4726

> <Gold.Chemscore.Internal.Correction>
   9.000000E+99

> <Gold.Chemscore.Hbonds>
donor molecule, donor type, donor heavy atom, donor atom, acceptor molecule, acceptor atom, score
      P1  H  7989  7998       L1     8  0.98
      P1  H  7997  8010       L1    17  0.93
      P1  H 10752 10765       L1    16  0.80

> <Gold.Chemscore.Hbond.Weighted>
-9.3672

> <Gold.Chemscore.Metal.Weighted>
-0.0000

> <Gold.Chemscore.Lipo.Weighted>
-6.6711

> <Gold.Chemscore.Internal_Hbond.Weighted>
0.0000

> <Gold.Chemscore.DEClash.Weighted>
0.0048

> <Gold.Chemscore.DEInternal.Weighted>
1.9659

> <Gold.Chemscore.Rot.Weighted>
6.3297

> <Gold.Chemscore.Internal.Correction.Weighted>
   9.000000E+99

> <Gold.Protein.RotatedTorsions>
[ 6907 6896 6895 6894 ] final   17.88 input  -60.11 | X-H torsion
[ 7974 7965 7964 7962 ] final  -27.60 input  175.53 | X-H torsion
[ 8008 7997 7996 7995 ] final   53.21 input   59.86 | X-H torsion
[ 10167 10162 10161 10158 ] final -116.67 input  -65.29 | X-H torsion
[ 10718 10713 10712 10709 ] final  135.85 input   66.30 | X-H torsion
[ 10763 10752 10751 10750 ] final -152.33 input  -60.55 | X-H torsion
[ 11005 11000 10999 10996 ] final  133.14 input  -57.11 | X-H torsion

> <Gold.Protein.ActiveResidues>
 VAL166  LYS551  ARG553  GLY616  TRP617  ASP618  TYR619  PRO620  LYS621  CYS622 
 ASP623  PHE694  ASN695  SER759  ASP760  ASP761  ALA762  ILE779  LEU786  VAL792 
 PHE793  MET794  SER795  GLU796  ALA797  LYS798  CYS799  TRP800  GLU811  SER814 

> <Gold.Protein.RotatedAtoms>
  151.8565  135.0539  160.0464 H   0  0  0  0  0  0  0  0  0  0  0  0  # atno 6907 bound_to 6896
  152.2696  133.5365  159.5439 H   0  0  0  0  0  0  0  0  0  0  0  0  # atno 6908 bound_to 6896
  150.7146  134.0633  159.3881 H   0  0  0  0  0  0  0  0  0  0  0  0  # atno 6909 bound_to 6896
  146.1346  140.5173  142.8678 H   0  0  0  0  0  0  0  0  0  0  0  0  # atno 7974 bound_to 7965
  155.4645  140.3463  155.4317 H   0  0  0  0  0  0  0  0  0  0  0  0  # atno 8008 bound_to 7997
  156.1139  140.1468  156.9328 H   0  0  0  0  0  0  0  0  0  0  0  0  # atno 8009 bound_to 7997
  154.4776  140.0880  156.7278 H   0  0  0  0  0  0  0  0  0  0  0  0  # atno 8010 bound_to 7997
  140.0767  143.4826  152.1949 H   0  0  0  0  0  0  0  0  0  0  0  0  # atno 10167 bound_to 10162
  157.4528  131.1067  151.0013 H   0  0  0  0  0  0  0  0  0  0  0  0  # atno 10718 bound_to 10713
  154.8001  135.3239  154.7571 H   0  0  0  0  0  0  0  0  0  0  0  0  # atno 10763 bound_to 10752
  153.8240  135.6885  153.4827 H   0  0  0  0  0  0  0  0  0  0  0  0  # atno 10764 bound_to 10752
  153.1713  135.4622  154.9849 H   0  0  0  0  0  0  0  0  0  0  0  0  # atno 10765 bound_to 10752
  139.9833  134.9541  156.9682 H   0  0  0  0  0  0  0  0  0  0  0  0  # atno 11005 bound_to 11000
  144.7726  140.5671  143.6659 LP  0  0  0  0  0  0  0  0  0  0  0  0  # atno 17320 bound_to 7965
  145.5184  139.1477  143.3566 LP  0  0  0  0  0  0  0  0  0  0  0  0  # atno 17321 bound_to 7965
  139.5804  144.7507  151.3655 LP  0  0  0  0  0  0  0  0  0  0  0  0  # atno 17342 bound_to 10162
  140.7098  143.7419  150.7547 LP  0  0  0  0  0  0  0  0  0  0  0  0  # atno 17343 bound_to 10162
  157.0838  130.5914  149.5425 LP  0  0  0  0  0  0  0  0  0  0  0  0  # atno 17370 bound_to 10713
  155.9994  130.5070  150.7606 LP  0  0  0  0  0  0  0  0  0  0  0  0  # atno 17371 bound_to 10713
  140.5052  134.1057  155.7258 LP  0  0  0  0  0  0  0  0  0  0  0  0  # atno 17394 bound_to 11000
  141.1502  133.8982  157.2117 LP  0  0  0  0  0  0  0  0  0  0  0  0  # atno 17395 bound_to 11000

$$$$
