AV-unprocessed.smi:2958|AV-procd|sdf|11307|dock8
  -GOLD-   2272016203D 1   1.00000     0.00000
 Structure written by MMmdl.
 39 41  0  0  0  0  0  0  0  0  1 V2000
  152.3711  144.7339  157.7819 C   0  0  0  0  0  0  0  0  0  0  0  0
  152.4249  144.0350  159.1250 C   0  0  0  0  0  0  0  0  0  0  0  0
  152.1015  144.7344  160.3050 C   0  0  0  0  0  0  0  0  0  0  0  0
  152.1552  144.0773  161.5478 C   0  0  0  0  0  0  0  0  0  0  0  0
  152.5316  142.7224  161.6127 C   0  0  0  0  0  0  0  0  0  0  0  0
  152.8563  142.0068  160.4421 C   0  0  0  0  0  0  0  0  0  0  0  0
  153.2110  140.6840  160.5976 O   0  0  0  0  0  0  0  0  0  0  0  0
  153.4320  139.9068  159.4297 C   0  0  0  0  0  0  0  0  0  0  0  0
  153.7135  138.4603  159.8518 C   0  0  0  0  0  0  0  0  0  0  0  0
  154.5413  138.4049  161.0460 N   0  0  0  0  0  0  0  0  0  0  0  0
  155.7230  139.0294  161.2787 C   0  0  0  0  0  0  0  0  0  0  0  0
  156.3705  139.9185  160.2617 C   0  0  0  0  0  0  0  0  0  0  0  0
  156.4601  139.3149  158.9890 O   0  0  0  0  0  0  0  0  0  0  0  0
  156.2732  138.8037  162.4724 N   0  0  0  0  0  0  0  0  0  0  0  0
  155.3600  137.9583  163.0724 C   0  0  0  0  0  0  0  0  0  0  0  0
  155.3655  137.3601  164.3528 C   0  0  0  0  0  0  0  0  0  0  0  0
  154.3032  136.5238  164.7548 C   0  0  0  0  0  0  0  0  0  0  0  0
  153.2223  136.2744  163.8845 C   0  0  0  0  0  0  0  0  0  0  0  0
  153.1981  136.8585  162.6033 C   0  0  0  0  0  0  0  0  0  0  0  0
  154.2615  137.6913  162.2067 C   0  0  0  0  0  0  0  0  0  0  0  0
  152.8005  142.6773  159.1936 C   0  0  0  0  0  0  0  0  0  0  0  0
  152.0778  145.7788  157.8878 H   0  0  0  0  0  0  0  0  0  0  0  0
  151.6494  144.2425  157.1288 H   0  0  0  0  0  0  0  0  0  0  0  0
  153.3486  144.7024  157.3000 H   0  0  0  0  0  0  0  0  0  0  0  0
  151.8122  145.7743  160.2625 H   0  0  0  0  0  0  0  0  0  0  0  0
  151.9077  144.6125  162.4527 H   0  0  0  0  0  0  0  0  0  0  0  0
  152.5698  142.2261  162.5713 H   0  0  0  0  0  0  0  0  0  0  0  0
  152.5530  139.9391  158.7840 H   0  0  0  0  0  0  0  0  0  0  0  0
  154.2824  140.2999  158.8699 H   0  0  0  0  0  0  0  0  0  0  0  0
  152.7773  137.9384  160.0527 H   0  0  0  0  0  0  0  0  0  0  0  0
  154.2011  137.9135  159.0448 H   0  0  0  0  0  0  0  0  0  0  0  0
  155.8172  140.8541  160.1815 H   0  0  0  0  0  0  0  0  0  0  0  0
  157.3753  140.1769  160.5972 H   0  0  0  0  0  0  0  0  0  0  0  0
  156.9692  138.5229  159.0681 H   0  0  0  0  0  0  0  0  0  0  0  0
  156.1883  137.5454  165.0273 H   0  0  0  0  0  0  0  0  0  0  0  0
  154.3177  136.0724  165.7360 H   0  0  0  0  0  0  0  0  0  0  0  0
  152.4122  135.6335  164.2009 H   0  0  0  0  0  0  0  0  0  0  0  0
  152.3717  136.6692  161.9342 H   0  0  0  0  0  0  0  0  0  0  0  0
  153.0429  142.1697  158.2721 H   0  0  0  0  0  0  0  0  0  0  0  0
  1  2  1  0  0  0  0
  1 22  1  0  0  0  0
  1 23  1  0  0  0  0
  1 24  1  0  0  0  0
  2 21  1  0  0  0  0
  2  3  2  0  0  0  0
  3  4  1  0  0  0  0
  3 25  1  0  0  0  0
  4  5  2  0  0  0  0
  4 26  1  0  0  0  0
  5  6  1  0  0  0  0
  5 27  1  0  0  0  0
  6  7  1  0  0  0  0
  6 21  2  0  0  0  0
  7  8  1  0  0  0  0
  8  9  1  0  0  0  0
  8 28  1  0  0  0  0
  8 29  1  0  0  0  0
  9 10  1  0  0  0  0
  9 30  1  0  0  0  0
  9 31  1  0  0  0  0
 10 20  1  0  0  0  0
 10 11  1  0  0  0  0
 11 12  1  0  0  0  0
 11 14  2  0  0  0  0
 12 13  1  0  0  0  0
 12 32  1  0  0  0  0
 12 33  1  0  0  0  0
 13 34  1  0  0  0  0
 14 15  1  0  0  0  0
 15 20  2  0  0  0  0
 15 16  1  0  0  0  0
 16 17  2  0  0  0  0
 16 35  1  0  0  0  0
 17 18  1  0  0  0  0
 17 36  1  0  0  0  0
 18 19  2  0  0  0  0
 18 37  1  0  0  0  0
 19 20  1  0  0  0  0
 19 38  1  0  0  0  0
 21 39  1  0  0  0  0
M  END
> <s_m_source_file>
AV-unprocessed.smi

> <i_m_source_file_index>
2958

> <i_lp_mmshare_version>
43012

> <i_f3d_flags>
0

> <s_epik_input>
W0NIM11jMVtjSF1bY0hdW2NIXWMoW2NIXTEpT1tDSDJdW0NIMl1uKGMobjIpW0NIMl1bT0hdKWMoYzIzKVtjSF1bY0hdW2NIXVtjSF0z

> <s_epik_cmdline>
J2VwaWtfcHl0aG9uJywgJy1waCcsICc3LjAnLCAnLXRuJywgJzgnLCAnLW1hJywgJzIwMCcsICctbWV0YWxfYmluZGluZycsICctaW1hZScsICc8aW5maWxlLm1hZT4nLCAnLW9tYWUnLCAnPG91dGZpbGUubWFlPic=

> <r_lp_tautomer_probability>
1

> <r_epik_Ionization_Penalty>
0.0482759

> <r_epik_Ionization_Penalty_Charging>
0

> <r_epik_Ionization_Penalty_Neutral>
0.0482759

> <r_epik_State_Penalty>
0.0410957

> <r_epik_Charging_Adjusted_Penalty>
0.0410957

> <i_epik_Tot_Q>
0

> <i_epik_Tot_abs_Q>
0

> <r_epik_Metal_State_Penalty>
4.25529e-05

> <b_epik_Metal_Only>
0

> <s_lp_Force_Field>
OPLS_2005

> <r_lp_Energy>
16.0806

> <b_lp_Chiralities_Consistent>
1

> <s_lp_Variant>
AV-unprocessed.smi:2958-1

> <Gold.Version>
5.8.1

> <Gold.Id.Protein>
6NUR|6NUR_protein|mol2

> <Gold.PLP.Fitness>
52.5895

> <Gold.PLP.PLP>
-50.1650

> <Gold.PLP.part.hbond>
-1.0000

> <Gold.PLP.part.metal>
0.0000

> <Gold.PLP.part.buried>
-4.2487

> <Gold.PLP.part.nonpolar>
-44.8920

> <Gold.PLP.part.repulsive>
0.0000

> <Gold.PLP.ligand.clash>
0.0000

> <Gold.PLP.ligand.torsion>
0.2904

> <Gold.PLP.Chemscore.Hbond>
1.0000

> <Gold.PLP.Chemscore.CHOScore>
0.0000

> <Gold.PLP.Chemscore.Metal>
0.0000

> <Gold.Chemscore.Hbonds>
donor molecule, donor type, donor heavy atom, donor atom, acceptor molecule, acceptor atom, score
      P1  H  7997  8010       L1    13  1.00

> <Gold.PLP.Chemscore.Internal.Correction>
0.0052

> <Gold.Rescore>
     Score         DG    S(hbond)    S(metal)    S(lipo)     H(rot)  DE(clash)    DE(int)     intcor
     20.50     -20.66       0.95        0.00     149.54       2.15       0.10       0.06       ----

> <Gold.Chemscore.Fitness>
20.5004

> <Gold.Chemscore.DG>
-20.6564

> <Gold.Chemscore.ZeroCoef>
-5.4800

> <Gold.Chemscore.Hbond>
0.9532

> <Gold.Chemscore.Metal>
0.0000

> <Gold.Chemscore.Lipo>
149.5436

> <Gold.Chemscore.Internal_Hbond>
0.0000

> <Gold.Chemscore.DEClash>
0.0971

> <Gold.Chemscore.DEInternal>
0.0589

> <Gold.Chemscore.Rot>
2.1499

> <Gold.Chemscore.Internal.Correction>
   9.000000E+99

> <Gold.Chemscore.Hbonds>
donor molecule, donor type, donor heavy atom, donor atom, acceptor molecule, acceptor atom, score
      P1  H  7997  8010       L1    13  0.96

> <Gold.Chemscore.Hbond.Weighted>
-3.1836

> <Gold.Chemscore.Metal.Weighted>
-0.0000

> <Gold.Chemscore.Lipo.Weighted>
-17.4966

> <Gold.Chemscore.Internal_Hbond.Weighted>
0.0000

> <Gold.Chemscore.DEClash.Weighted>
0.0971

> <Gold.Chemscore.DEInternal.Weighted>
0.0589

> <Gold.Chemscore.Rot.Weighted>
5.5038

> <Gold.Chemscore.Internal.Correction.Weighted>
   9.000000E+99

> <Gold.Protein.RotatedTorsions>
[ 6907 6896 6895 6894 ] final   55.77 input  -60.11 | X-H torsion
[ 7974 7965 7964 7962 ] final   71.93 input  175.53 | X-H torsion
[ 8008 7997 7996 7995 ] final  -26.54 input   59.86 | X-H torsion
[ 10167 10162 10161 10158 ] final   29.16 input  -65.29 | X-H torsion
[ 10718 10713 10712 10709 ] final  -38.08 input   66.30 | X-H torsion
[ 10763 10752 10751 10750 ] final  -63.38 input  -60.55 | X-H torsion
[ 11005 11000 10999 10996 ] final  -87.34 input  -57.11 | X-H torsion

> <Gold.Protein.ActiveResidues>
 VAL166  LYS551  ARG553  GLY616  TRP617  ASP618  TYR619  PRO620  LYS621  CYS622 
 ASP623  PHE694  ASN695  SER759  ASP760  ASP761  ALA762  ILE779  LEU786  VAL792 
 PHE793  MET794  SER795  GLU796  ALA797  LYS798  CYS799  TRP800  GLU811  SER814 

> <Gold.Protein.RotatedAtoms>
  152.3571  134.6924  160.0218 H   0  0  0  0  0  0  0  0  0  0  0  0  # atno 6907 bound_to 6896
  151.7259  133.3310  159.3335 H   0  0  0  0  0  0  0  0  0  0  0  0  # atno 6908 bound_to 6896
  150.7579  134.6340  159.6246 H   0  0  0  0  0  0  0  0  0  0  0  0  # atno 6909 bound_to 6896
  145.7597  139.2795  143.1383 H   0  0  0  0  0  0  0  0  0  0  0  0  # atno 7974 bound_to 7965
  154.4420  140.1896  156.0791 H   0  0  0  0  0  0  0  0  0  0  0  0  # atno 8008 bound_to 7997
  156.0452  140.3315  155.7262 H   0  0  0  0  0  0  0  0  0  0  0  0  # atno 8009 bound_to 7997
  155.5639  140.0606  157.2813 H   0  0  0  0  0  0  0  0  0  0  0  0  # atno 8010 bound_to 7997
  140.4790  144.0646  150.6259 H   0  0  0  0  0  0  0  0  0  0  0  0  # atno 10167 bound_to 10162
  156.3078  130.4248  149.8079 H   0  0  0  0  0  0  0  0  0  0  0  0  # atno 10718 bound_to 10713
  154.3142  135.6209  153.5479 H   0  0  0  0  0  0  0  0  0  0  0  0  # atno 10763 bound_to 10752
  152.9826  135.5708  154.5143 H   0  0  0  0  0  0  0  0  0  0  0  0  # atno 10764 bound_to 10752
  154.4799  135.2862  155.1555 H   0  0  0  0  0  0  0  0  0  0  0  0  # atno 10765 bound_to 10752
  141.1618  133.7506  156.9293 H   0  0  0  0  0  0  0  0  0  0  0  0  # atno 11005 bound_to 11000
  146.0276  140.8288  142.9892 LP  0  0  0  0  0  0  0  0  0  0  0  0  # atno 17320 bound_to 7965
  144.6833  140.2722  143.7304 LP  0  0  0  0  0  0  0  0  0  0  0  0  # atno 17321 bound_to 7965
  140.3882  143.2766  152.0091 LP  0  0  0  0  0  0  0  0  0  0  0  0  # atno 17342 bound_to 10162
  139.4830  144.6099  151.7453 LP  0  0  0  0  0  0  0  0  0  0  0  0  # atno 17343 bound_to 10162
  156.5434  130.8310  151.3276 LP  0  0  0  0  0  0  0  0  0  0  0  0  # atno 17370 bound_to 10713
  157.7384  130.9812  150.2249 LP  0  0  0  0  0  0  0  0  0  0  0  0  # atno 17371 bound_to 10713
  140.1398  134.9301  157.2451 LP  0  0  0  0  0  0  0  0  0  0  0  0  # atno 17394 bound_to 11000
  140.2851  134.3305  155.7331 LP  0  0  0  0  0  0  0  0  0  0  0  0  # atno 17395 bound_to 11000

$$$$
