AV-unprocessed.smi:177|AV-procd|sdf|1444|dock2
  -GOLD-   2262019233D 1   1.00000     0.00000
 Structure written by MMmdl.
 61 65  0  0  0  0  0  0  0  0  1 V2000
  151.9530  144.4874  158.3608 C   0  0  0  0  0  0  0  0  0  0  0  0
  151.6061  143.1139  158.4550 O   0  0  0  0  0  0  0  0  0  0  0  0
  152.6316  142.2787  158.9783 C   0  0  1  0  0  0  0  0  0  0  0  0
  152.8139  142.6521  160.4598 C   0  0  0  0  0  0  0  0  0  0  0  0
  153.8465  141.7454  161.1464 C   0  0  0  0  0  0  0  0  0  0  0  0
  153.4551  140.2676  161.0011 C   0  0  2  0  0  0  0  0  0  0  0  0
  154.4497  139.4581  161.6204 O   0  0  0  0  0  0  0  0  0  0  0  0
  154.1046  138.0774  161.5886 C   0  0  0  0  0  0  0  0  0  0  0  0
  153.9829  137.6182  160.1277 C   0  0  0  0  0  0  0  0  0  0  0  0
  153.0121  138.4443  159.4151 N   0  0  0  0  0  0  0  0  0  0  0  0
  152.7648  138.0046  158.1599 C   0  0  0  0  0  0  0  0  0  0  0  0
  153.5402  138.4210  157.1241 N   0  0  0  0  0  0  0  0  0  0  0  0
  153.2620  138.0188  155.8802 C   0  0  0  0  0  0  0  0  0  0  0  0
  152.2714  137.2287  155.4593 N   0  0  0  0  0  0  0  0  0  0  0  0
  151.4903  136.8158  156.4990 C   0  0  0  0  0  0  0  0  0  0  0  0
  151.6715  137.1473  157.8699 C   0  0  0  0  0  0  0  0  0  0  0  0
  150.6897  136.5427  158.6430 N   0  0  0  0  0  0  0  0  0  0  0  0
  149.9652  135.8897  157.7755 C   0  0  0  0  0  0  0  0  0  0  0  0
  150.3593  136.0183  156.4615 N   0  0  0  0  0  0  0  0  0  0  0  0
  149.7299  135.4127  155.2964 C   0  0  0  0  0  0  0  0  0  0  0  0
  149.4957  133.8717  155.3800 C   0  0  0  0  0  0  0  0  0  0  0  0
  148.3904  133.6223  156.4458 C   0  0  0  0  0  0  0  0  0  0  0  0
  147.1199  134.0759  156.0226 O   0  0  0  0  0  0  0  0  0  0  0  0
  149.0922  133.2842  154.0018 C   0  0  0  0  0  0  0  0  0  0  0  0
  149.0428  131.7456  154.0037 C   0  0  0  0  0  0  0  0  0  0  0  0
  150.3051  131.2222  154.3986 O   0  0  0  0  0  0  0  0  0  0  0  0
  150.6806  131.6069  155.7154 C   0  0  0  0  0  0  0  0  0  0  0  0
  150.7968  133.1407  155.8040 C   0  0  0  0  0  0  0  0  0  0  0  0
  153.3184  139.8753  159.5110 C   0  0  1  0  0  0  0  0  0  0  0  0
  152.2672  140.7861  158.8300 C   0  0  0  0  0  0  0  0  0  0  0  0
  151.0877  145.0549  158.0189 H   0  0  0  0  0  0  0  0  0  0  0  0
  152.7587  144.6577  157.6471 H   0  0  0  0  0  0  0  0  0  0  0  0
  152.2515  144.8887  159.3300 H   0  0  0  0  0  0  0  0  0  0  0  0
  153.5699  142.4797  158.4577 H   0  0  0  0  0  0  0  0  0  0  0  0
  153.1223  143.6945  160.5451 H   0  0  0  0  0  0  0  0  0  0  0  0
  151.8581  142.5695  160.9789 H   0  0  0  0  0  0  0  0  0  0  0  0
  154.8319  141.9127  160.7096 H   0  0  0  0  0  0  0  0  0  0  0  0
  153.9254  142.0078  162.2018 H   0  0  0  0  0  0  0  0  0  0  0  0
  152.5037  140.1089  161.5134 H   0  0  0  0  0  0  0  0  0  0  0  0
  154.8795  137.5056  162.0992 H   0  0  0  0  0  0  0  0  0  0  0  0
  153.1728  137.9076  162.1308 H   0  0  0  0  0  0  0  0  0  0  0  0
  154.9581  137.6888  159.6440 H   0  0  0  0  0  0  0  0  0  0  0  0
  153.6784  136.5713  160.0903 H   0  0  0  0  0  0  0  0  0  0  0  0
  153.9226  138.3900  155.1109 H   0  0  0  0  0  0  0  0  0  0  0  0
  149.1079  135.3022  158.0707 H   0  0  0  0  0  0  0  0  0  0  0  0
  148.7792  135.9216  155.1316 H   0  0  0  0  0  0  0  0  0  0  0  0
  150.3491  135.6550  154.4319 H   0  0  0  0  0  0  0  0  0  0  0  0
  148.2904  132.5684  156.6977 H   0  0  0  0  0  0  0  0  0  0  0  0
  148.6410  134.1324  157.3766 H   0  0  0  0  0  0  0  0  0  0  0  0
  146.4906  133.3858  156.1680 H   0  0  0  0  0  0  0  0  0  0  0  0
  148.1351  133.6888  153.6717 H   0  0  0  0  0  0  0  0  0  0  0  0
  149.8176  133.5767  153.2440 H   0  0  0  0  0  0  0  0  0  0  0  0
  148.2536  131.3671  154.6535 H   0  0  0  0  0  0  0  0  0  0  0  0
  148.8181  131.3835  153.0004 H   0  0  0  0  0  0  0  0  0  0  0  0
  149.9729  131.2089  156.4426 H   0  0  0  0  0  0  0  0  0  0  0  0
  151.6443  131.1520  155.9448 H   0  0  0  0  0  0  0  0  0  0  0  0
  151.6211  133.4299  155.1531 H   0  0  0  0  0  0  0  0  0  0  0  0
  151.0889  133.4363  156.8123 H   0  0  0  0  0  0  0  0  0  0  0  0
  154.2802  140.0407  159.0220 H   0  0  0  0  0  0  0  0  0  0  0  0
  151.2828  140.6021  159.2628 H   0  0  0  0  0  0  0  0  0  0  0  0
  152.1922  140.5405  157.7714 H   0  0  0  0  0  0  0  0  0  0  0  0
  1  2  1  0  0  0  0
  1 31  1  0  0  0  0
  1 32  1  0  0  0  0
  1 33  1  0  0  0  0
  2  3  1  0  0  0  0
  3 30  1  0  0  0  0
  3  4  1  0  0  0  0
  3 34  1  0  0  0  0
  4  5  1  0  0  0  0
  4 35  1  0  0  0  0
  4 36  1  0  0  0  0
  5  6  1  0  0  0  0
  5 37  1  0  0  0  0
  5 38  1  0  0  0  0
  6 29  1  0  0  0  0
  6  7  1  0  0  0  0
  6 39  1  0  0  0  0
  7  8  1  0  0  0  0
  8  9  1  0  0  0  0
  8 40  1  0  0  0  0
  8 41  1  0  0  0  0
  9 10  1  0  0  0  0
  9 42  1  0  0  0  0
  9 43  1  0  0  0  0
 10 11  1  0  0  0  0
 10 29  1  0  0  0  0
 11 16  1  0  0  0  0
 11 12  2  0  0  0  0
 12 13  1  0  0  0  0
 13 14  2  0  0  0  0
 13 44  1  0  0  0  0
 14 15  1  0  0  0  0
 15 19  1  0  0  0  0
 15 16  2  0  0  0  0
 16 17  1  0  0  0  0
 17 18  2  0  0  0  0
 18 19  1  0  0  0  0
 18 45  1  0  0  0  0
 19 20  1  0  0  0  0
 20 21  1  0  0  0  0
 20 46  1  0  0  0  0
 20 47  1  0  0  0  0
 21 28  1  0  0  0  0
 21 22  1  0  0  0  0
 21 24  1  0  0  0  0
 22 23  1  0  0  0  0
 22 48  1  0  0  0  0
 22 49  1  0  0  0  0
 23 50  1  0  0  0  0
 24 25  1  0  0  0  0
 24 51  1  0  0  0  0
 24 52  1  0  0  0  0
 25 26  1  0  0  0  0
 25 53  1  0  0  0  0
 25 54  1  0  0  0  0
 26 27  1  0  0  0  0
 27 28  1  0  0  0  0
 27 55  1  0  0  0  0
 27 56  1  0  0  0  0
 28 57  1  0  0  0  0
 28 58  1  0  0  0  0
 29 30  1  0  0  0  0
 29 59  1  0  0  0  0
 30 60  1  0  0  0  0
 30 61  1  0  0  0  0
M  END
> <s_m_source_file>
AV-unprocessed.smi

> <i_m_source_file_index>
177

> <i_lp_mmshare_version>
43012

> <i_f3d_flags>
0

> <s_epik_input>
W0NIM11PW0NASF0oW0NIMl1bQ0gyXTEpW0NIMl1bQ0BIXShbQ0BASF0xMilOKFtDSDJdW0NIMl1PMiljKG5bY0hdbjMpYyhjMzQpbltjSF1uNFtDSDJdQzUoW0NIMl1bT0hdKVtDSDJdW0NIMl1PW0NIMl1bQ0gyXTU=

> <s_epik_cmdline>
J2VwaWtfcHl0aG9uJywgJy1waCcsICc3LjAnLCAnLXRuJywgJzgnLCAnLW1hJywgJzIwMCcsICctbWV0YWxfYmluZGluZycsICctaW1hZScsICc8aW5maWxlLm1hZT4nLCAnLW9tYWUnLCAnPG91dGZpbGUubWFlPic=

> <r_lp_tautomer_probability>
1

> <r_epik_Ionization_Penalty>
0.0065899

> <r_epik_Ionization_Penalty_Charging>
0

> <r_epik_Ionization_Penalty_Neutral>
0.0065899

> <r_epik_State_Penalty>
0.00470042

> <r_epik_Charging_Adjusted_Penalty>
0.00470042

> <i_epik_Tot_Q>
0

> <i_epik_Tot_abs_Q>
0

> <r_epik_Metal_State_Penalty>
-0

> <b_epik_Metal_Only>
0

> <s_lp_Force_Field>
OPLS_2005

> <r_lp_Energy>
44.4032

> <b_lp_Chiralities_Consistent>
1

> <s_lp_Variant>
AV-unprocessed.smi:177-8

> <Gold.Version>
5.8.1

> <Gold.Id.Protein>
6NUR|6NUR_protein|mol2

> <Gold.PLP.Fitness>
50.3818

> <Gold.PLP.PLP>
-43.8370

> <Gold.PLP.part.hbond>
-3.0000

> <Gold.PLP.part.metal>
0.0000

> <Gold.PLP.part.buried>
-4.4985

> <Gold.PLP.part.nonpolar>
-37.2893

> <Gold.PLP.part.repulsive>
0.1125

> <Gold.PLP.ligand.clash>
0.0000

> <Gold.PLP.ligand.torsion>
0.7938

> <Gold.PLP.Chemscore.Hbond>
2.6640

> <Gold.PLP.Chemscore.CHOScore>
0.0000

> <Gold.PLP.Chemscore.Metal>
0.0000

> <Gold.Chemscore.Hbonds>
donor molecule, donor type, donor heavy atom, donor atom, acceptor molecule, acceptor atom, score
      P1  H  6896  6908       L1    17  0.93
      P1  H  7997  8010       L1    12  0.94
      P1  H 10752 10765       L1    14  0.80

> <Gold.PLP.Chemscore.Internal.Correction>
0.1404

> <Gold.Rescore>
     Score         DG    S(hbond)    S(metal)    S(lipo)     H(rot)  DE(clash)    DE(int)     intcor
     16.12     -16.93       1.29        0.00     117.49       2.58       0.03       0.78       ----

> <Gold.Chemscore.Fitness>
16.1199

> <Gold.Chemscore.DG>
-16.9251

> <Gold.Chemscore.ZeroCoef>
-5.4800

> <Gold.Chemscore.Hbond>
1.2890

> <Gold.Chemscore.Metal>
0.0000

> <Gold.Chemscore.Lipo>
117.4871

> <Gold.Chemscore.Internal_Hbond>
0.0000

> <Gold.Chemscore.DEClash>
0.0276

> <Gold.Chemscore.DEInternal>
0.7777

> <Gold.Chemscore.Rot>
2.5806

> <Gold.Chemscore.Internal.Correction>
   9.000000E+99

> <Gold.Chemscore.Hbonds>
donor molecule, donor type, donor heavy atom, donor atom, acceptor molecule, acceptor atom, score
      P1  H  6896  6908       L1    17  0.22
      P1  H  7997  8010       L1    12  0.36
      P1  H 10752 10765       L1    14  0.22

> <Gold.Chemscore.Hbond.Weighted>
-4.3054

> <Gold.Chemscore.Metal.Weighted>
-0.0000

> <Gold.Chemscore.Lipo.Weighted>
-13.7460

> <Gold.Chemscore.Internal_Hbond.Weighted>
0.0000

> <Gold.Chemscore.DEClash.Weighted>
0.0276

> <Gold.Chemscore.DEInternal.Weighted>
0.7777

> <Gold.Chemscore.Rot.Weighted>
6.6062

> <Gold.Chemscore.Internal.Correction.Weighted>
   9.000000E+99

> <Gold.Protein.RotatedTorsions>
[ 6907 6896 6895 6894 ] final -144.44 input  -60.11 | X-H torsion
[ 7974 7965 7964 7962 ] final  131.37 input  175.53 | X-H torsion
[ 8008 7997 7996 7995 ] final   44.64 input   59.86 | X-H torsion
[ 10167 10162 10161 10158 ] final   39.94 input  -65.29 | X-H torsion
[ 10718 10713 10712 10709 ] final   31.31 input   66.30 | X-H torsion
[ 10763 10752 10751 10750 ] final -166.73 input  -60.55 | X-H torsion
[ 11005 11000 10999 10996 ] final -163.57 input  -57.11 | X-H torsion

> <Gold.Protein.ActiveResidues>
 VAL166  LYS551  ARG553  GLY616  TRP617  ASP618  TYR619  PRO620  LYS621  CYS622 
 ASP623  PHE694  ASN695  SER759  ASP760  ASP761  ALA762  ILE779  LEU786  VAL792 
 PHE793  MET794  SER795  GLU796  ALA797  LYS798  CYS799  TRP800  GLU811  SER814 

> <Gold.Protein.RotatedAtoms>
  151.1141  133.5151  159.2604 H   0  0  0  0  0  0  0  0  0  0  0  0  # atno 6907 bound_to 6896
  151.1934  135.0412  159.8852 H   0  0  0  0  0  0  0  0  0  0  0  0  # atno 6908 bound_to 6896
  152.5452  134.0978  159.8358 H   0  0  0  0  0  0  0  0  0  0  0  0  # atno 6909 bound_to 6896
  145.0081  139.4247  143.5259 H   0  0  0  0  0  0  0  0  0  0  0  0  # atno 7974 bound_to 7965
  155.3226  140.3398  155.4241 H   0  0  0  0  0  0  0  0  0  0  0  0  # atno 8008 bound_to 7997
  156.1901  140.1694  156.8145 H   0  0  0  0  0  0  0  0  0  0  0  0  # atno 8009 bound_to 7997
  154.5432  140.0720  156.8529 H   0  0  0  0  0  0  0  0  0  0  0  0  # atno 8010 bound_to 7997
  140.3791  144.2004  150.6131 H   0  0  0  0  0  0  0  0  0  0  0  0  # atno 10167 bound_to 10162
  157.2709  130.7207  149.6503 H   0  0  0  0  0  0  0  0  0  0  0  0  # atno 10718 bound_to 10713
  154.6803  135.2953  154.9622 H   0  0  0  0  0  0  0  0  0  0  0  0  # atno 10763 bound_to 10752
  154.0619  135.6630  153.4817 H   0  0  0  0  0  0  0  0  0  0  0  0  # atno 10764 bound_to 10752
  153.0543  135.5154  154.7843 H   0  0  0  0  0  0  0  0  0  0  0  0  # atno 10765 bound_to 10752
  140.5966  134.4990  157.5200 H   0  0  0  0  0  0  0  0  0  0  0  0  # atno 11005 bound_to 11000
  146.3465  139.9508  142.8729 LP  0  0  0  0  0  0  0  0  0  0  0  0  # atno 17320 bound_to 7965
  145.2061  140.9875  143.4127 LP  0  0  0  0  0  0  0  0  0  0  0  0  # atno 17321 bound_to 7965
  140.4956  143.2333  151.8754 LP  0  0  0  0  0  0  0  0  0  0  0  0  # atno 17342 bound_to 10162
  139.4797  144.5117  151.8923 LP  0  0  0  0  0  0  0  0  0  0  0  0  # atno 17343 bound_to 10162
  155.9663  130.4368  150.5149 LP  0  0  0  0  0  0  0  0  0  0  0  0  # atno 17370 bound_to 10713
  157.3073  131.0657  151.2026 LP  0  0  0  0  0  0  0  0  0  0  0  0  # atno 17371 bound_to 10713
  139.9251  134.8073  156.1094 LP  0  0  0  0  0  0  0  0  0  0  0  0  # atno 17394 bound_to 11000
  141.0900  133.6718  156.2519 LP  0  0  0  0  0  0  0  0  0  0  0  0  # atno 17395 bound_to 11000

$$$$
