AV-unprocessed.smi:1047|AV-procd|sdf|4571|dock8
  -GOLD-   22720 3 23D 1   1.00000     0.00000
 Structure written by MMmdl.
 56 58  0  0  0  0  0  0  0  0  2 V2000
  143.7285  133.1552  150.5643 C   0  0  0  0  0  0  0  0  0  0  0  0
  144.6357  134.3583  150.2687 C   0  0  0  0  0  0  0  0  0  0  0  0
  144.8495  135.2619  151.3981 N   0  0  0  0  0  0  0  0  0  0  0  0
  143.5786  135.6958  151.9676 C   0  0  0  0  0  0  0  0  0  0  0  0
  143.7787  136.6503  153.1566 C   0  0  0  0  0  0  0  0  0  0  0  0
  144.5621  137.7651  152.7428 O   0  0  0  0  0  0  0  0  0  0  0  0
  145.8390  137.3891  152.2322 C   0  0  2  0  0  0  0  0  0  0  0  0
  146.5914  138.6651  151.8315 C   0  0  0  0  0  0  0  0  0  0  0  0
  147.8793  138.7674  152.5449 N   0  3  0  0  0  0  0  0  0  0  0  0
  147.7696  139.3226  153.9081 C   0  0  0  0  0  0  0  0  0  0  0  0
  148.9327  140.2836  154.2165 C   0  0  1  0  0  0  0  0  0  0  0  0
  149.0821  141.1784  153.1309 O   0  0  0  0  0  0  0  0  0  0  0  0
  148.7390  141.0926  155.5178 C   0  0  0  0  0  0  0  0  0  0  0  0
  149.4564  140.5423  156.6569 N   0  0  0  0  0  0  0  0  0  0  0  0
  149.3423  139.2987  157.1624 C   0  0  0  0  0  0  0  0  0  0  0  0
  150.1044  138.9934  158.2079 N   0  0  0  0  0  0  0  0  0  0  0  0
  150.7832  140.1816  158.4151 C   0  0  0  0  0  0  0  0  0  0  0  0
  151.7543  140.5260  159.3805 C   0  0  0  0  0  0  0  0  0  0  0  0
  152.3237  141.8188  159.4066 C   0  0  0  0  0  0  0  0  0  0  0  0
  153.3660  142.1451  160.4619 C   0  0  0  0  0  0  0  0  0  0  0  0
  151.9210  142.7919  158.4570 C   0  0  0  0  0  0  0  0  0  0  0  0
  152.5156  144.1892  158.4700 C   0  0  0  0  0  0  0  0  0  0  0  0
  150.9529  142.4645  157.4848 C   0  0  0  0  0  0  0  0  0  0  0  0
  150.3963  141.1730  157.4663 C   0  0  0  0  0  0  0  0  0  0  0  0
  145.6328  136.4401  151.0342 C   0  0  0  0  0  0  0  0  0  0  0  0
  143.5278  132.5940  149.6517 H   0  0  0  0  0  0  0  0  0  0  0  0
  142.7695  133.4766  150.9716 H   0  0  0  0  0  0  0  0  0  0  0  0
  144.1839  132.4644  151.2734 H   0  0  0  0  0  0  0  0  0  0  0  0
  145.5953  134.0061  149.8871 H   0  0  0  0  0  0  0  0  0  0  0  0
  144.1773  134.9191  149.4530 H   0  0  0  0  0  0  0  0  0  0  0  0
  142.9813  136.1947  151.2027 H   0  0  0  0  0  0  0  0  0  0  0  0
  143.0037  134.8289  152.2954 H   0  0  0  0  0  0  0  0  0  0  0  0
  142.8162  137.0068  153.5235 H   0  0  0  0  0  0  0  0  0  0  0  0
  144.2690  136.1382  153.9863 H   0  0  0  0  0  0  0  0  0  0  0  0
  146.4010  136.8691  153.0105 H   0  0  0  0  0  0  0  0  0  0  0  0
  146.7875  138.6554  150.7584 H   0  0  0  0  0  0  0  0  0  0  0  0
  145.9824  139.5461  152.0401 H   0  0  0  0  0  0  0  0  0  0  0  0
  148.2863  137.8446  152.6040 H   0  0  0  0  0  0  0  0  0  0  0  0
  146.8078  139.8256  154.0204 H   0  0  0  0  0  0  0  0  0  0  0  0
  147.7827  138.4929  154.6161 H   0  0  0  0  0  0  0  0  0  0  0  0
  149.8568  139.7109  154.3066 H   0  0  0  0  0  0  0  0  0  0  0  0
  148.8975  140.7137  152.3285 H   0  0  0  0  0  0  0  0  0  0  0  0
  149.0708  142.1207  155.3683 H   0  0  0  0  0  0  0  0  0  0  0  0
  147.6797  141.1496  155.7722 H   0  0  0  0  0  0  0  0  0  0  0  0
  148.6673  138.5730  156.7319 H   0  0  0  0  0  0  0  0  0  0  0  0
  152.0593  139.7852  160.1051 H   0  0  0  0  0  0  0  0  0  0  0  0
  153.0402  142.9853  161.0754 H   0  0  0  0  0  0  0  0  0  0  0  0
  154.3150  142.4058  159.9925 H   0  0  0  0  0  0  0  0  0  0  0  0
  153.5424  141.2966  161.1236 H   0  0  0  0  0  0  0  0  0  0  0  0
  152.1305  144.7940  157.6484 H   0  0  0  0  0  0  0  0  0  0  0  0
  153.6005  144.1457  158.3724 H   0  0  0  0  0  0  0  0  0  0  0  0
  152.2718  144.6974  159.4030 H   0  0  0  0  0  0  0  0  0  0  0  0
  150.6377  143.1985  156.7582 H   0  0  0  0  0  0  0  0  0  0  0  0
  146.6094  136.1394  150.6558 H   0  0  0  0  0  0  0  0  0  0  0  0
  145.1360  136.9770  150.2245 H   0  0  0  0  0  0  0  0  0  0  0  0
  148.5003  139.3584  152.0104 H   0  0  0  0  0  0  0  0  0  0  0  0
  1  2  1  0  0  0  0
  1 26  1  0  0  0  0
  1 27  1  0  0  0  0
  1 28  1  0  0  0  0
  2  3  1  0  0  0  0
  2 29  1  0  0  0  0
  2 30  1  0  0  0  0
  3 25  1  0  0  0  0
  3  4  1  0  0  0  0
  4  5  1  0  0  0  0
  4 31  1  0  0  0  0
  4 32  1  0  0  0  0
  5  6  1  0  0  0  0
  5 33  1  0  0  0  0
  5 34  1  0  0  0  0
  6  7  1  0  0  0  0
  7  8  1  0  0  0  0
  7 25  1  0  0  0  0
  7 35  1  0  0  0  0
  8  9  1  0  0  0  0
  8 36  1  0  0  0  0
  8 37  1  0  0  0  0
  9 10  1  0  0  0  0
  9 38  1  0  0  0  0
  9 56  1  0  0  0  0
 10 11  1  0  0  0  0
 10 39  1  0  0  0  0
 10 40  1  0  0  0  0
 11 12  1  0  0  0  0
 11 13  1  0  0  0  0
 11 41  1  0  0  0  0
 12 42  1  0  0  0  0
 13 14  1  0  0  0  0
 13 43  1  0  0  0  0
 13 44  1  0  0  0  0
 14 24  1  0  0  0  0
 14 15  1  0  0  0  0
 15 16  2  0  0  0  0
 15 45  1  0  0  0  0
 16 17  1  0  0  0  0
 17 24  2  0  0  0  0
 17 18  1  0  0  0  0
 18 19  2  0  0  0  0
 18 46  1  0  0  0  0
 19 20  1  0  0  0  0
 19 21  1  0  0  0  0
 20 47  1  0  0  0  0
 20 48  1  0  0  0  0
 20 49  1  0  0  0  0
 21 22  1  0  0  0  0
 21 23  2  0  0  0  0
 22 50  1  0  0  0  0
 22 51  1  0  0  0  0
 22 52  1  0  0  0  0
 23 24  1  0  0  0  0
 23 53  1  0  0  0  0
 25 54  1  0  0  0  0
 25 55  1  0  0  0  0
M  CHG  1   9   1
M  END
> <s_m_source_file>
AV-unprocessed.smi

> <i_m_source_file_index>
1047

> <i_lp_mmshare_version>
43012

> <i_f3d_flags>
0

> <s_epik_input>
W0NIM11bQ0gyXU4xW0NIMl1bQ0gyXU9bQ0BIXShbQ0gyXTEpW0NIMl1bTkhdW0NIMl1bQ0BIXShbT0hdKVtDSDJdbihbY0hdbjIpYyhjMjMpW2NIXWMoW0NIM10pYyhbY0hdMylbQ0gzXQ==

> <s_epik_cmdline>
J2VwaWtfcHl0aG9uJywgJy1waCcsICc3LjAnLCAnLXRuJywgJzgnLCAnLW1hJywgJzIwMCcsICctbWV0YWxfYmluZGluZycsICctaW1hZScsICc8aW5maWxlLm1hZT4nLCAnLW9tYWUnLCAnPG91dGZpbGUubWFlPic=

> <r_epik_Ionization_Penalty>
0.692425

> <r_epik_Ionization_Penalty_Charging>
0.0243549

> <r_epik_Ionization_Penalty_Neutral>
0.66807

> <r_epik_State_Penalty>
0.592789

> <r_epik_Charging_Adjusted_Penalty>
0.617144

> <i_epik_Tot_Q>
1

> <i_epik_Tot_abs_Q>
1

> <r_epik_Metal_State_Penalty>
0.508021

> <b_epik_Metal_Only>
0

> <s_lp_Force_Field>
OPLS_2005

> <r_lp_Energy>
28.1656

> <b_lp_Chiralities_Consistent>
1

> <s_lp_Variant>
AV-unprocessed.smi:1047-12

> <Gold.Version>
5.8.1

> <Gold.Id.Protein>
6NUR|6NUR_protein|mol2

> <Gold.PLP.Fitness>
60.3579

> <Gold.PLP.PLP>
-50.0875

> <Gold.PLP.part.hbond>
-4.2068

> <Gold.PLP.part.metal>
0.0000

> <Gold.PLP.part.buried>
-6.1563

> <Gold.PLP.part.nonpolar>
-42.8951

> <Gold.PLP.part.repulsive>
1.0824

> <Gold.PLP.ligand.clash>
0.0000

> <Gold.PLP.ligand.torsion>
1.7973

> <Gold.PLP.Chemscore.Hbond>
4.5360

> <Gold.PLP.Chemscore.CHOScore>
0.0000

> <Gold.PLP.Chemscore.Metal>
0.0000

> <Gold.Chemscore.Hbonds>
donor molecule, donor type, donor heavy atom, donor atom, acceptor molecule, acceptor atom, score
      L1  H     9    38       P1  7948  2.00
      L1  H     9    56       P1  7957  1.00
      L1  H    12    42       P1  7957  0.80
      P1  H  8011  8017       L1    12  0.60

> <Gold.PLP.Chemscore.Internal.Correction>
0.2570

> <Gold.Rescore>
     Score         DG    S(hbond)    S(metal)    S(lipo)     H(rot)  DE(clash)    DE(int)     intcor
     20.89     -23.78       2.78        0.00     134.07       2.60       1.15       1.74       ----

> <Gold.Chemscore.Fitness>
20.8936

> <Gold.Chemscore.DG>
-23.7835

> <Gold.Chemscore.ZeroCoef>
-5.4800

> <Gold.Chemscore.Hbond>
2.7802

> <Gold.Chemscore.Metal>
0.0000

> <Gold.Chemscore.Lipo>
134.0691

> <Gold.Chemscore.Internal_Hbond>
0.0000

> <Gold.Chemscore.DEClash>
1.1485

> <Gold.Chemscore.DEInternal>
1.7415

> <Gold.Chemscore.Rot>
2.6049

> <Gold.Chemscore.Internal.Correction>
   9.000000E+99

> <Gold.Chemscore.Hbonds>
donor molecule, donor type, donor heavy atom, donor atom, acceptor molecule, acceptor atom, score
      L1  H     9    38       P1  7948  0.97
      L1  H     9    56       P1  7957  0.93
      L1  H    12    42       P1  7957  0.74
      P1  H  8011  8017       L1    12  0.04

> <Gold.Chemscore.Hbond.Weighted>
-9.2859

> <Gold.Chemscore.Metal.Weighted>
-0.0000

> <Gold.Chemscore.Lipo.Weighted>
-15.6861

> <Gold.Chemscore.Internal_Hbond.Weighted>
0.0000

> <Gold.Chemscore.DEClash.Weighted>
1.1485

> <Gold.Chemscore.DEInternal.Weighted>
1.7415

> <Gold.Chemscore.Rot.Weighted>
6.6685

> <Gold.Chemscore.Internal.Correction.Weighted>
   9.000000E+99

> <Gold.Protein.RotatedTorsions>
[ 6907 6896 6895 6894 ] final  126.27 input  -60.11 | X-H torsion
[ 7974 7965 7964 7962 ] final  138.16 input  175.53 | X-H torsion
[ 8008 7997 7996 7995 ] final   38.81 input   59.86 | X-H torsion
[ 10167 10162 10161 10158 ] final   28.53 input  -65.29 | X-H torsion
[ 10718 10713 10712 10709 ] final  103.76 input   66.30 | X-H torsion
[ 10763 10752 10751 10750 ] final  -66.46 input  -60.55 | X-H torsion
[ 11005 11000 10999 10996 ] final  117.93 input  -57.11 | X-H torsion

> <Gold.Protein.ActiveResidues>
 VAL166  LYS551  ARG553  GLY616  TRP617  ASP618  TYR619  PRO620  LYS621  CYS622 
 ASP623  PHE694  ASN695  SER759  ASP760  ASP761  ALA762  ILE779  LEU786  VAL792 
 PHE793  MET794  SER795  GLU796  ALA797  LYS798  CYS799  TRP800  GLU811  SER814 

> <Gold.Protein.RotatedAtoms>
  152.3919  133.6690  159.6243 H   0  0  0  0  0  0  0  0  0  0  0  0  # atno 6907 bound_to 6896
  150.7825  133.8940  159.3330 H   0  0  0  0  0  0  0  0  0  0  0  0  # atno 6908 bound_to 6896
  151.6725  135.0975  160.0252 H   0  0  0  0  0  0  0  0  0  0  0  0  # atno 6909 bound_to 6896
  144.9399  139.4943  143.5577 H   0  0  0  0  0  0  0  0  0  0  0  0  # atno 7974 bound_to 7965
  155.2263  140.3335  155.4309 H   0  0  0  0  0  0  0  0  0  0  0  0  # atno 8008 bound_to 7997
  156.2313  140.1852  156.7281 H   0  0  0  0  0  0  0  0  0  0  0  0  # atno 8009 bound_to 7997
  154.5983  140.0627  156.9319 H   0  0  0  0  0  0  0  0  0  0  0  0  # atno 8010 bound_to 7997
  140.4845  144.0564  150.6276 H   0  0  0  0  0  0  0  0  0  0  0  0  # atno 10167 bound_to 10162
  157.6762  131.0787  150.5604 H   0  0  0  0  0  0  0  0  0  0  0  0  # atno 10718 bound_to 10713
  154.3602  135.6117  153.5687 H   0  0  0  0  0  0  0  0  0  0  0  0  # atno 10763 bound_to 10752
  152.9794  135.5813  154.4642 H   0  0  0  0  0  0  0  0  0  0  0  0  # atno 10764 bound_to 10752
  154.4378  135.2849  155.1846 H   0  0  0  0  0  0  0  0  0  0  0  0  # atno 10765 bound_to 10752
  139.9091  134.9615  156.7425 H   0  0  0  0  0  0  0  0  0  0  0  0  # atno 11005 bound_to 11000
  146.3281  139.8411  142.8890 LP  0  0  0  0  0  0  0  0  0  0  0  0  # atno 17320 bound_to 7965
  145.3008  141.0193  143.3610 LP  0  0  0  0  0  0  0  0  0  0  0  0  # atno 17321 bound_to 7965
  140.3816  143.2800  152.0164 LP  0  0  0  0  0  0  0  0  0  0  0  0  # atno 17342 bound_to 10162
  139.4839  144.6150  151.7363 LP  0  0  0  0  0  0  0  0  0  0  0  0  # atno 17343 bound_to 10162
  156.5907  130.4328  149.5938 LP  0  0  0  0  0  0  0  0  0  0  0  0  # atno 17370 bound_to 10713
  156.2586  130.6949  151.1710 LP  0  0  0  0  0  0  0  0  0  0  0  0  # atno 17371 bound_to 10713
  140.6838  133.9451  155.7926 LP  0  0  0  0  0  0  0  0  0  0  0  0  # atno 17394 bound_to 11000
  141.0491  134.0510  157.3806 LP  0  0  0  0  0  0  0  0  0  0  0  0  # atno 17395 bound_to 11000

$$$$
