AV-unprocessed.smi:207|AV-procd|sdf|1604|dock7
  -GOLD-   2262019523D 1   1.00000     0.00000
 Structure written by MMmdl.
 56 59  0  0  0  0  0  0  0  0  2 V2000
  149.3210  133.7361  154.4743 C   0  0  0  0  0  0  0  0  0  0  0  0
  148.7944  135.0582  155.0788 C   0  0  0  0  0  0  0  0  0  0  0  0
  148.3608  134.8087  156.5427 C   0  0  0  0  0  0  0  0  0  0  0  0
  149.9921  136.0424  155.0567 C   0  0  0  0  0  0  0  0  0  0  0  0
  149.5973  137.4082  155.3778 N   0  0  0  0  0  0  0  0  0  0  0  0
  150.6113  138.2331  155.7399 C   0  0  0  0  0  0  0  0  0  0  0  0
  151.8917  137.7757  155.7417 N   0  0  0  0  0  0  0  0  0  0  0  0
  152.8952  138.5826  156.0992 C   0  0  0  0  0  0  0  0  0  0  0  0
  152.8434  139.8612  156.4772 N   0  0  0  0  0  0  0  0  0  0  0  0
  151.5620  140.3284  156.4699 C   0  0  0  0  0  0  0  0  0  0  0  0
  150.3978  139.5872  156.1222 C   0  0  0  0  0  0  0  0  0  0  0  0
  149.2727  140.3962  156.2279 N   0  0  0  0  0  0  0  0  0  0  0  0
  149.7447  141.5486  156.6185 C   0  0  0  0  0  0  0  0  0  0  0  0
  151.1115  141.6015  156.7753 N   0  0  0  0  0  0  0  0  0  0  0  0
  151.9006  142.7519  157.1886 C   0  0  0  0  0  0  0  0  0  0  0  0
  151.6980  143.1846  158.6576 C   0  0  0  0  0  0  0  0  0  0  0  0
  152.4055  142.2061  159.6140 C   0  0  0  0  0  0  0  0  0  0  0  0
  152.0866  142.4594  160.9681 O   0  0  0  0  0  0  0  0  0  0  0  0
  151.8746  144.6808  158.9619 C   0  0  0  0  0  0  0  0  0  0  0  0
  150.4504  144.9101  158.9675 O   0  0  0  0  0  0  0  0  0  0  0  0
  150.2320  143.4846  159.0055 C   0  0  0  0  0  0  0  0  0  0  0  0
  148.5498  137.9397  154.5178 C   0  0  0  0  0  0  0  0  0  0  0  0
  147.3216  137.0239  154.5572 C   0  0  0  0  0  0  0  0  0  0  0  0
  147.6634  135.6055  154.2501 N   0  3  2  0  0  0  0  0  0  0  0  0
  146.4413  134.7537  154.1828 C   0  0  0  0  0  0  0  0  0  0  0  0
  145.5606  135.1116  152.9744 C   0  0  0  0  0  0  0  0  0  0  0  0
  146.3451  135.1445  151.8009 O   0  0  0  0  0  0  0  0  0  0  0  0
  150.2390  133.4198  154.9715 H   0  0  0  0  0  0  0  0  0  0  0  0
  149.5501  133.8483  153.4138 H   0  0  0  0  0  0  0  0  0  0  0  0
  148.6219  132.9077  154.5760 H   0  0  0  0  0  0  0  0  0  0  0  0
  149.1936  134.4294  157.1359 H   0  0  0  0  0  0  0  0  0  0  0  0
  147.5598  134.0730  156.6132 H   0  0  0  0  0  0  0  0  0  0  0  0
  148.0146  135.7204  157.0294 H   0  0  0  0  0  0  0  0  0  0  0  0
  150.7754  135.6874  155.7266 H   0  0  0  0  0  0  0  0  0  0  0  0
  150.4358  136.0582  154.0596 H   0  0  0  0  0  0  0  0  0  0  0  0
  153.8808  138.1412  156.0781 H   0  0  0  0  0  0  0  0  0  0  0  0
  149.1015  142.3967  156.8008 H   0  0  0  0  0  0  0  0  0  0  0  0
  152.9489  142.5107  157.0076 H   0  0  0  0  0  0  0  0  0  0  0  0
  151.6737  143.5805  156.5168 H   0  0  0  0  0  0  0  0  0  0  0  0
  152.1116  141.1773  159.4046 H   0  0  0  0  0  0  0  0  0  0  0  0
  153.4880  142.2452  159.4898 H   0  0  0  0  0  0  0  0  0  0  0  0
  151.2700  142.0283  161.1696 H   0  0  0  0  0  0  0  0  0  0  0  0
  152.3181  144.8854  159.9378 H   0  0  0  0  0  0  0  0  0  0  0  0
  152.3824  145.2450  158.1807 H   0  0  0  0  0  0  0  0  0  0  0  0
  149.5178  143.1513  158.2515 H   0  0  0  0  0  0  0  0  0  0  0  0
  149.9263  143.1516  159.9986 H   0  0  0  0  0  0  0  0  0  0  0  0
  148.2661  138.9425  154.8406 H   0  0  0  0  0  0  0  0  0  0  0  0
  148.9253  138.0207  153.4967 H   0  0  0  0  0  0  0  0  0  0  0  0
  146.8560  137.0833  155.5416 H   0  0  0  0  0  0  0  0  0  0  0  0
  146.5836  137.3959  153.8473 H   0  0  0  0  0  0  0  0  0  0  0  0
  146.6771  133.6938  154.1222 H   0  0  0  0  0  0  0  0  0  0  0  0
  145.8702  134.8655  155.1057 H   0  0  0  0  0  0  0  0  0  0  0  0
  144.7857  134.3557  152.8449 H   0  0  0  0  0  0  0  0  0  0  0  0
  145.0525  136.0667  153.1036 H   0  0  0  0  0  0  0  0  0  0  0  0
  147.2564  135.1967  152.0483 H   0  0  0  0  0  0  0  0  0  0  0  0
  148.0280  135.6136  153.3079 H   0  0  0  0  0  0  0  0  0  0  0  0
  1  2  1  0  0  0  0
  1 28  1  0  0  0  0
  1 29  1  0  0  0  0
  1 30  1  0  0  0  0
  2 24  1  0  0  0  0
  2  3  1  0  0  0  0
  2  4  1  0  0  0  0
  3 31  1  0  0  0  0
  3 32  1  0  0  0  0
  3 33  1  0  0  0  0
  4  5  1  0  0  0  0
  4 34  1  0  0  0  0
  4 35  1  0  0  0  0
  5  6  1  0  0  0  0
  5 22  1  0  0  0  0
  6 11  1  0  0  0  0
  6  7  2  0  0  0  0
  7  8  1  0  0  0  0
  8  9  2  0  0  0  0
  8 36  1  0  0  0  0
  9 10  1  0  0  0  0
 10 14  1  0  0  0  0
 10 11  2  0  0  0  0
 11 12  1  0  0  0  0
 12 13  2  0  0  0  0
 13 14  1  0  0  0  0
 13 37  1  0  0  0  0
 14 15  1  0  0  0  0
 15 16  1  0  0  0  0
 15 38  1  0  0  0  0
 15 39  1  0  0  0  0
 16 21  1  0  0  0  0
 16 17  1  0  0  0  0
 16 19  1  0  0  0  0
 17 18  1  0  0  0  0
 17 40  1  0  0  0  0
 17 41  1  0  0  0  0
 18 42  1  0  0  0  0
 19 20  1  0  0  0  0
 19 43  1  0  0  0  0
 19 44  1  0  0  0  0
 20 21  1  0  0  0  0
 21 45  1  0  0  0  0
 21 46  1  0  0  0  0
 22 23  1  0  0  0  0
 22 47  1  0  0  0  0
 22 48  1  0  0  0  0
 23 24  1  0  0  0  0
 23 49  1  0  0  0  0
 23 50  1  0  0  0  0
 24 25  1  0  0  0  0
 24 56  1  0  0  0  0
 25 26  1  0  0  0  0
 25 51  1  0  0  0  0
 25 52  1  0  0  0  0
 26 27  1  0  0  0  0
 26 53  1  0  0  0  0
 26 54  1  0  0  0  0
 27 55  1  0  0  0  0
M  CHG  1  24   1
M  END
> <s_m_source_file>
AV-unprocessed.smi

> <i_m_source_file_index>
207

> <i_lp_mmshare_version>
43012

> <i_f3d_flags>
0

> <s_epik_input>
W09IXVtDSDJdW0NIMl1OMVtDSDJdW0NIMl1OKFtDSDJdQzEoW0NIM10pW0NIM10pYyhuW2NIXW4yKWMoYzIzKW5bY0hdbjNbQ0gyXUM0KFtDSDJdW09IXSlbQ0gyXU9bQ0gyXTQ=

> <s_epik_cmdline>
J2VwaWtfcHl0aG9uJywgJy1waCcsICc3LjAnLCAnLXRuJywgJzgnLCAnLW1hJywgJzIwMCcsICctbWV0YWxfYmluZGluZycsICctaW1hZScsICc8aW5maWxlLm1hZT4nLCAnLW9tYWUnLCAnPG91dGZpbGUubWFlPic=

> <r_lp_tautomer_probability>
1

> <r_epik_Ionization_Penalty>
0.416568

> <r_epik_Ionization_Penalty_Charging>
0.416506

> <r_epik_Ionization_Penalty_Neutral>
6.2219e-05

> <r_epik_State_Penalty>
0.419386

> <r_epik_Charging_Adjusted_Penalty>
0.835892

> <i_epik_Tot_Q>
1

> <i_epik_Tot_abs_Q>
1

> <r_epik_Metal_State_Penalty>
0.420232

> <b_epik_Metal_Only>
0

> <s_lp_Force_Field>
OPLS_2005

> <r_lp_Energy>
56.1561

> <b_lp_Chiralities_Consistent>
1

> <s_lp_Variant>
AV-unprocessed.smi:207-3

> <Gold.Version>
5.8.1

> <Gold.Id.Protein>
6NUR|6NUR_protein|mol2

> <Gold.PLP.Fitness>
46.1414

> <Gold.PLP.PLP>
-32.0975

> <Gold.PLP.part.hbond>
-4.0000

> <Gold.PLP.part.metal>
0.0000

> <Gold.PLP.part.buried>
-3.3738

> <Gold.PLP.part.nonpolar>
-24.6057

> <Gold.PLP.part.repulsive>
0.3422

> <Gold.PLP.ligand.clash>
0.0000

> <Gold.PLP.ligand.torsion>
0.8111

> <Gold.PLP.Chemscore.Hbond>
3.9500

> <Gold.PLP.Chemscore.CHOScore>
1.0000

> <Gold.PLP.Chemscore.Metal>
0.0000

> <Gold.Chemscore.Hbonds>
donor molecule, donor type, donor heavy atom, donor atom, acceptor molecule, acceptor atom, score
      L1  H    24    56       P1  7948  2.00
      L1  H    27    55       P1  7948  0.91
      P1  H  7997  8010       L1     9  0.83
      L1  C    13    37       P1  8028  0.84

> <Gold.PLP.Chemscore.Internal.Correction>
0.8160

> <Gold.Rescore>
     Score         DG    S(hbond)    S(metal)    S(lipo)     H(rot)  DE(clash)    DE(int)     intcor
     11.68     -14.67       2.79        0.00      82.13       3.80       2.18       0.81       ----

> <Gold.Chemscore.Fitness>
11.6759

> <Gold.Chemscore.DG>
-14.6672

> <Gold.Chemscore.ZeroCoef>
-5.4800

> <Gold.Chemscore.Hbond>
2.7861

> <Gold.Chemscore.Metal>
0.0000

> <Gold.Chemscore.Lipo>
82.1267

> <Gold.Chemscore.Internal_Hbond>
0.0000

> <Gold.Chemscore.DEClash>
2.1816

> <Gold.Chemscore.DEInternal>
0.8097

> <Gold.Chemscore.Rot>
3.7997

> <Gold.Chemscore.Internal.Correction>
   9.000000E+99

> <Gold.Chemscore.Hbonds>
donor molecule, donor type, donor heavy atom, donor atom, acceptor molecule, acceptor atom, score
      L1  H    24    56       P1  7948  0.99
      L1  H    27    55       P1  7948  0.86
      P1  H  7997  8010       L1     9  0.13

> <Gold.Chemscore.Hbond.Weighted>
-9.3057

> <Gold.Chemscore.Metal.Weighted>
-0.0000

> <Gold.Chemscore.Lipo.Weighted>
-9.6088

> <Gold.Chemscore.Internal_Hbond.Weighted>
0.0000

> <Gold.Chemscore.DEClash.Weighted>
2.1816

> <Gold.Chemscore.DEInternal.Weighted>
0.8097

> <Gold.Chemscore.Rot.Weighted>
9.7273

> <Gold.Chemscore.Internal.Correction.Weighted>
   9.000000E+99

> <Gold.Protein.RotatedTorsions>
[ 6907 6896 6895 6894 ] final   32.02 input  -60.11 | X-H torsion
[ 7974 7965 7964 7962 ] final   72.77 input  175.53 | X-H torsion
[ 8008 7997 7996 7995 ] final   68.46 input   59.86 | X-H torsion
[ 10167 10162 10161 10158 ] final  -71.33 input  -65.29 | X-H torsion
[ 10718 10713 10712 10709 ] final   48.98 input   66.30 | X-H torsion
[ 10763 10752 10751 10750 ] final  -83.54 input  -60.55 | X-H torsion
[ 11005 11000 10999 10996 ] final  -87.48 input  -57.11 | X-H torsion

> <Gold.Protein.ActiveResidues>
 VAL166  LYS551  ARG553  GLY616  TRP617  ASP618  TYR619  PRO620  LYS621  CYS622 
 ASP623  PHE694  ASN695  SER759  ASP760  ASP761  ALA762  ILE779  LEU786  VAL792 
 PHE793  MET794  SER795  GLU796  ALA797  LYS798  CYS799  TRP800  GLU811  SER814 

> <Gold.Protein.RotatedAtoms>
  152.0685  134.9548  160.0574 H   0  0  0  0  0  0  0  0  0  0  0  0  # atno 6907 bound_to 6896
  152.0884  133.4183  159.4541 H   0  0  0  0  0  0  0  0  0  0  0  0  # atno 6908 bound_to 6896
  150.6836  134.2820  159.4675 H   0  0  0  0  0  0  0  0  0  0  0  0  # atno 6909 bound_to 6896
  145.7492  139.2753  143.1441 H   0  0  0  0  0  0  0  0  0  0  0  0  # atno 7974 bound_to 7965
  155.7086  140.3494  155.4964 H   0  0  0  0  0  0  0  0  0  0  0  0  # atno 8008 bound_to 7997
  155.9376  140.1095  157.1103 H   0  0  0  0  0  0  0  0  0  0  0  0  # atno 8009 bound_to 7997
  154.4096  140.1219  156.4871 H   0  0  0  0  0  0  0  0  0  0  0  0  # atno 8010 bound_to 7997
  140.5281  143.2324  151.7311 H   0  0  0  0  0  0  0  0  0  0  0  0  # atno 10167 bound_to 10162
  157.4741  130.8273  149.8020 H   0  0  0  0  0  0  0  0  0  0  0  0  # atno 10718 bound_to 10713
  154.5889  135.5552  153.7259 H   0  0  0  0  0  0  0  0  0  0  0  0  # atno 10763 bound_to 10752
  153.0109  135.6338  154.1877 H   0  0  0  0  0  0  0  0  0  0  0  0  # atno 10764 bound_to 10752
  154.1818  135.2887  155.3029 H   0  0  0  0  0  0  0  0  0  0  0  0  # atno 10765 bound_to 10752
  141.1616  133.7514  156.9313 H   0  0  0  0  0  0  0  0  0  0  0  0  # atno 11005 bound_to 11000
  146.0373  140.8199  142.9846 LP  0  0  0  0  0  0  0  0  0  0  0  0  # atno 17320 bound_to 7965
  144.6853  140.2858  143.7285 LP  0  0  0  0  0  0  0  0  0  0  0  0  # atno 17321 bound_to 7965
  139.4945  144.4155  152.0034 LP  0  0  0  0  0  0  0  0  0  0  0  0  # atno 17342 bound_to 10162
  140.3256  144.3377  150.5999 LP  0  0  0  0  0  0  0  0  0  0  0  0  # atno 17343 bound_to 10162
  156.0088  130.3843  150.2337 LP  0  0  0  0  0  0  0  0  0  0  0  0  # atno 17370 bound_to 10713
  157.0521  131.0065  151.3250 LP  0  0  0  0  0  0  0  0  0  0  0  0  # atno 17371 bound_to 10713
  140.1384  134.9310  157.2433 LP  0  0  0  0  0  0  0  0  0  0  0  0  # atno 17394 bound_to 11000
  140.2866  134.3288  155.7327 LP  0  0  0  0  0  0  0  0  0  0  0  0  # atno 17395 bound_to 11000

$$$$
