AV-unprocessed.smi:38|AV-procd|sdf|349|dock2
  -GOLD-   2262016183D 1   1.00000     0.00000
 Structure written by MMmdl.
 27 28  0  0  0  0  0  0  0  0  2 V2000
  152.4127  139.8161  155.7861 O   0  0  0  0  0  0  0  0  0  0  0  0
  151.2890  139.8546  155.2872 C   0  0  0  0  0  0  0  0  0  0  0  0
  150.5114  140.9756  155.3037 N   0  5  0  0  0  0  0  0  0  0  0  0
  149.2636  141.0154  154.7508 C   0  0  0  0  0  0  0  0  0  0  0  0
  148.5602  142.0261  154.7496 O   0  0  0  0  0  0  0  0  0  0  0  0
  148.7439  139.8413  154.1404 N   0  0  0  0  0  0  0  0  0  0  0  0
  147.3638  139.8871  153.5211 C   0  0  1  0  0  0  0  0  0  0  0  0
  147.4416  139.5904  152.0142 C   0  0  0  0  0  0  0  0  0  0  0  0
  146.2724  138.6477  151.8057 C   0  0  1  0  0  0  0  0  0  0  0  0
  146.5007  137.7857  150.7097 O   0  0  0  0  0  0  0  0  0  0  0  0
  146.2511  137.9029  153.1418 C   0  0  2  0  0  0  0  0  0  0  0  0
  144.9572  137.1559  153.5126 C   0  0  0  0  0  0  0  0  0  0  0  0
  143.8265  138.0026  153.4909 O   0  0  0  0  0  0  0  0  0  0  0  0
  146.5545  138.9048  154.1052 O   0  0  0  0  0  0  0  0  0  0  0  0
  149.5156  138.6915  154.1001 C   0  0  0  0  0  0  0  0  0  0  0  0
  150.7493  138.6583  154.6438 C   0  0  0  0  0  0  0  0  0  0  0  0
  151.4746  137.5279  154.5887 F   0  0  0  0  0  0  0  0  0  0  0  0
  146.9487  140.8670  153.7618 H   0  0  0  0  0  0  0  0  0  0  0  0
  145.3606  139.2252  151.6510 H   0  0  0  0  0  0  0  0  0  0  0  0
  147.0784  137.1910  153.1652 H   0  0  0  0  0  0  0  0  0  0  0  0
  147.3769  140.5069  151.4270 H   0  0  0  0  0  0  0  0  0  0  0  0
  148.3867  139.0922  151.7885 H   0  0  0  0  0  0  0  0  0  0  0  0
  145.7428  137.8119  150.1458 H   0  0  0  0  0  0  0  0  0  0  0  0
  144.7824  136.3515  152.7979 H   0  0  0  0  0  0  0  0  0  0  0  0
  145.0505  136.6939  154.4956 H   0  0  0  0  0  0  0  0  0  0  0  0
  144.0659  138.8134  153.0686 H   0  0  0  0  0  0  0  0  0  0  0  0
  149.1390  137.7975  153.6276 H   0  0  0  0  0  0  0  0  0  0  0  0
  1  2  2  0  0  0  0
  2 16  1  0  0  0  0
  2  3  1  0  0  0  0
  3  4  1  0  0  0  0
  4  5  2  0  0  0  0
  4  6  1  0  0  0  0
  6  7  1  0  0  0  0
  6 15  1  0  0  0  0
  7 18  1  0  0  0  0
  7 14  1  0  0  0  0
  7  8  1  0  0  0  0
  8  9  1  0  0  0  0
  8 21  1  0  0  0  0
  8 22  1  0  0  0  0
  9 19  1  0  0  0  0
  9 10  1  0  0  0  0
  9 11  1  0  0  0  0
 10 23  1  0  0  0  0
 11 20  1  0  0  0  0
 11 12  1  0  0  0  0
 11 14  1  0  0  0  0
 12 13  1  0  0  0  0
 12 24  1  0  0  0  0
 12 25  1  0  0  0  0
 13 26  1  0  0  0  0
 15 16  2  0  0  0  0
 15 27  1  0  0  0  0
 16 17  1  0  0  0  0
M  CHG  1   3  -1
M  END
> <s_m_source_file>
AV-unprocessed.smi

> <i_m_source_file_index>
38

> <i_lp_mmshare_version>
43012

> <i_f3d_flags>
0

> <s_epik_input>
Tz1jMVtuSF1jKD1PKW4oW2NIXWMxRilbQ0BIXTJbQ0gyXVtDQEhdKFtPSF0pW0NASF0oTzIpW0NIMl1bT0hd

> <s_epik_cmdline>
J2VwaWtfcHl0aG9uJywgJy1waCcsICc3LjAnLCAnLXRuJywgJzgnLCAnLW1hJywgJzIwMCcsICctbWV0YWxfYmluZGluZycsICctaW1hZScsICc8aW5maWxlLm1hZT4nLCAnLW9tYWUnLCAnPG91dGZpbGUubWFlPic=

> <r_epik_Ionization_Penalty>
1.68146

> <r_epik_Ionization_Penalty_Charging>
3.4211e-08

> <r_epik_Ionization_Penalty_Neutral>
1.68146

> <r_epik_State_Penalty>
1.78593

> <r_epik_Charging_Adjusted_Penalty>
1.78593

> <i_epik_Tot_Q>
-1

> <i_epik_Tot_abs_Q>
1

> <r_epik_Metal_State_Penalty>
0.0113696

> <b_epik_Metal_Only>
0

> <s_epik_Chemistry_Notes>
This compound contains an acetal/aminal-like group ( X-CH(R)-Y where X, Y are N, S, or O) that may be acid/base labile, releasing an aldehyde.

> <s_lp_Force_Field>
OPLS_2005

> <r_lp_Energy>
38.28

> <b_lp_Chiralities_Consistent>
1

> <s_lp_Variant>
AV-unprocessed.smi:38-15

> <Gold.Version>
5.8.1

> <Gold.Id.Protein>
6NUR|6NUR_protein|mol2

> <Gold.PLP.Fitness>
42.5695

> <Gold.PLP.PLP>
-27.7433

> <Gold.PLP.part.hbond>
-5.9258

> <Gold.PLP.part.metal>
0.0000

> <Gold.PLP.part.buried>
4.8383

> <Gold.PLP.part.nonpolar>
-28.2675

> <Gold.PLP.part.repulsive>
2.1507

> <Gold.PLP.ligand.clash>
0.0000

> <Gold.PLP.ligand.torsion>
0.0165

> <Gold.PLP.Chemscore.Hbond>
3.9516

> <Gold.PLP.Chemscore.CHOScore>
1.0000

> <Gold.PLP.Chemscore.Metal>
0.0000

> <Gold.Chemscore.Hbonds>
donor molecule, donor type, donor heavy atom, donor atom, acceptor molecule, acceptor atom, score
      L1  H    10    23       P1 10171  0.95
      L1  H    13    26       P1 10175  1.00
      P1  H  7954  7966       L1    10  1.00
      P1  H  7997  8009       L1     1  1.00
      L1  C    15    27       P1  7948  1.00

> <Gold.PLP.Chemscore.Internal.Correction>
0.0045

> <Gold.Rescore>
     Score         DG    S(hbond)    S(metal)    S(lipo)     H(rot)  DE(clash)    DE(int)     intcor
     12.78     -16.01       3.82        0.00      43.87       2.88       3.23       0.00       ----

> <Gold.Chemscore.Fitness>
12.7758

> <Gold.Chemscore.DG>
-16.0081

> <Gold.Chemscore.ZeroCoef>
-5.4800

> <Gold.Chemscore.Hbond>
3.8240

> <Gold.Chemscore.Metal>
0.0000

> <Gold.Chemscore.Lipo>
43.8680

> <Gold.Chemscore.Internal_Hbond>
0.0000

> <Gold.Chemscore.DEClash>
3.2281

> <Gold.Chemscore.DEInternal>
0.0043

> <Gold.Chemscore.Rot>
2.8815

> <Gold.Chemscore.Internal.Correction>
   9.000000E+99

> <Gold.Chemscore.Hbonds>
donor molecule, donor type, donor heavy atom, donor atom, acceptor molecule, acceptor atom, score
      L1  H    10    23       P1 10171  0.85
      L1  H    13    26       P1 10175  0.95
      P1  H  7954  7966       L1    10  0.86
      P1  H  7997  8009       L1     1  0.96

> <Gold.Chemscore.Hbond.Weighted>
-12.7721

> <Gold.Chemscore.Metal.Weighted>
-0.0000

> <Gold.Chemscore.Lipo.Weighted>
-5.1326

> <Gold.Chemscore.Internal_Hbond.Weighted>
0.0000

> <Gold.Chemscore.DEClash.Weighted>
3.2281

> <Gold.Chemscore.DEInternal.Weighted>
0.0043

> <Gold.Chemscore.Rot.Weighted>
7.3765

> <Gold.Chemscore.Internal.Correction.Weighted>
   9.000000E+99

> <Gold.Protein.RotatedTorsions>
[ 6907 6896 6895 6894 ] final -145.64 input  -60.11 | X-H torsion
[ 7974 7965 7964 7962 ] final   41.83 input  175.53 | X-H torsion
[ 8008 7997 7996 7995 ] final -150.49 input   59.86 | X-H torsion
[ 10167 10162 10161 10158 ] final -178.61 input  -65.29 | X-H torsion
[ 10718 10713 10712 10709 ] final   54.07 input   66.30 | X-H torsion
[ 10763 10752 10751 10750 ] final -174.64 input  -60.55 | X-H torsion
[ 11005 11000 10999 10996 ] final  -23.70 input  -57.11 | X-H torsion

> <Gold.Protein.ActiveResidues>
 VAL166  LYS551  ARG553  GLY616  TRP617  ASP618  TYR619  PRO620  LYS621  CYS622 
 ASP623  PHE694  ASN695  SER759  ASP760  ASP761  ALA762  ILE779  LEU786  VAL792 
 PHE793  MET794  SER795  GLU796  ALA797  LYS798  CYS799  TRP800  GLU811  SER814 

> <Gold.Protein.RotatedAtoms>
  151.1306  133.5040  159.2599 H   0  0  0  0  0  0  0  0  0  0  0  0  # atno 6907 bound_to 6896
  151.1762  135.0340  159.8783 H   0  0  0  0  0  0  0  0  0  0  0  0  # atno 6908 bound_to 6896
  152.5459  134.1163  159.8433 H   0  0  0  0  0  0  0  0  0  0  0  0  # atno 6909 bound_to 6896
  146.0791  139.5370  142.9548 H   0  0  0  0  0  0  0  0  0  0  0  0  # atno 7974 bound_to 7965
  155.6243  140.0685  157.2668 H   0  0  0  0  0  0  0  0  0  0  0  0  # atno 8008 bound_to 7997
  154.4221  140.1779  156.1453 H   0  0  0  0  0  0  0  0  0  0  0  0  # atno 8009 bound_to 7997
  155.9984  140.3338  155.6825 H   0  0  0  0  0  0  0  0  0  0  0  0  # atno 8010 bound_to 7997
  139.5424  144.2326  152.0922 H   0  0  0  0  0  0  0  0  0  0  0  0  # atno 10167 bound_to 10162
  157.5224  130.8574  149.8576 H   0  0  0  0  0  0  0  0  0  0  0  0  # atno 10718 bound_to 10713
  154.5938  135.2847  155.0607 H   0  0  0  0  0  0  0  0  0  0  0  0  # atno 10763 bound_to 10752
  154.1898  135.6442  153.5060 H   0  0  0  0  0  0  0  0  0  0  0  0  # atno 10764 bound_to 10752
  153.0131  135.5443  154.6633 H   0  0  0  0  0  0  0  0  0  0  0  0  # atno 10765 bound_to 10752
  140.8776  133.7676  156.0262 H   0  0  0  0  0  0  0  0  0  0  0  0  # atno 11005 bound_to 11000
  145.6251  141.0315  143.1894 LP  0  0  0  0  0  0  0  0  0  0  0  0  # atno 17320 bound_to 7965
  144.7281  139.7811  143.7357 LP  0  0  0  0  0  0  0  0  0  0  0  0  # atno 17321 bound_to 7965
  140.1807  144.4847  150.6530 LP  0  0  0  0  0  0  0  0  0  0  0  0  # atno 17342 bound_to 10162
  140.6660  143.2268  151.5743 LP  0  0  0  0  0  0  0  0  0  0  0  0  # atno 17343 bound_to 10162
  156.0363  130.3750  150.1552 LP  0  0  0  0  0  0  0  0  0  0  0  0  # atno 17370 bound_to 10713
  156.9740  130.9843  151.3452 LP  0  0  0  0  0  0  0  0  0  0  0  0  # atno 17371 bound_to 10713
  140.8499  134.2966  157.5279 LP  0  0  0  0  0  0  0  0  0  0  0  0  # atno 17394 bound_to 11000
  139.8717  134.9462  156.3932 LP  0  0  0  0  0  0  0  0  0  0  0  0  # atno 17395 bound_to 11000

$$$$
