AV-unprocessed.smi:2421|AV-procd|sdf|9556|dock9
  -GOLD-   2272013193D 1   1.00000     0.00000
 Structure written by MMmdl.
 44 46  0  0  0  0  0  0  0  0  1 V2000
  151.7379  138.1584  154.8074 C   0  0  0  0  0  0  0  0  0  0  0  0
  150.7034  139.2393  154.6837 C   0  0  0  0  0  0  0  0  0  0  0  0
  150.9906  140.4821  155.0407 N   0  0  0  0  0  0  0  0  0  0  0  0
  149.8278  141.2399  154.8179 O   0  0  0  0  0  0  0  0  0  0  0  0
  148.8553  140.4253  154.3267 C   0  0  0  0  0  0  0  0  0  0  0  0
  147.5307  141.0412  154.0290 C   0  0  0  0  0  0  0  0  0  0  0  0
  149.3655  139.1666  154.2178 C   0  0  0  0  0  0  0  0  0  0  0  0
  148.6848  138.0137  153.7759 N   0  0  0  0  0  0  0  0  0  0  0  0
  147.4856  137.6262  154.2404 C   0  0  0  0  0  0  0  0  0  0  0  0
  146.8973  138.1956  155.1582 O   0  0  0  0  0  0  0  0  0  0  0  0
  146.9685  136.5452  153.6288 N   0  0  0  0  0  0  0  0  0  0  0  0
  145.6926  135.8780  153.8966 C   0  0  1  0  0  0  0  0  0  0  0  0
  145.6054  135.5017  155.3808 C   0  0  0  0  0  0  0  0  0  0  0  0
  144.2380  134.8801  155.6983 C   0  0  0  0  0  0  0  0  0  0  0  0
  143.1832  135.7613  155.3166 O   0  0  0  0  0  0  0  0  0  0  0  0
  143.1567  136.1532  153.9389 C   0  0  0  0  0  0  0  0  0  0  0  0
  142.7131  134.9969  153.0248 C   0  0  0  0  0  0  0  0  0  0  0  0
  141.2009  134.8769  153.2357 C   0  0  0  0  0  0  0  0  0  0  0  0
  140.7276  136.2625  153.6970 C   0  0  0  0  0  0  0  0  0  0  0  0
  141.9862  137.1334  153.7943 C   0  0  0  0  0  0  0  0  0  0  0  0
  144.5061  136.7934  153.5474 C   0  0  0  0  0  0  0  0  0  0  0  0
  151.3604  137.2032  154.4423 H   0  0  0  0  0  0  0  0  0  0  0  0
  152.0379  138.0203  155.8464 H   0  0  0  0  0  0  0  0  0  0  0  0
  152.6302  138.4027  154.2309 H   0  0  0  0  0  0  0  0  0  0  0  0
  146.8506  140.3121  153.5880 H   0  0  0  0  0  0  0  0  0  0  0  0
  147.6391  141.8683  153.3274 H   0  0  0  0  0  0  0  0  0  0  0  0
  147.0709  141.4261  154.9391 H   0  0  0  0  0  0  0  0  0  0  0  0
  149.1096  137.4810  153.0309 H   0  0  0  0  0  0  0  0  0  0  0  0
  147.5402  136.1218  152.9121 H   0  0  0  0  0  0  0  0  0  0  0  0
  145.6322  134.9586  153.3117 H   0  0  0  0  0  0  0  0  0  0  0  0
  146.4008  134.8036  155.6437 H   0  0  0  0  0  0  0  0  0  0  0  0
  145.7495  136.3884  156.0001 H   0  0  0  0  0  0  0  0  0  0  0  0
  144.1307  133.9115  155.2114 H   0  0  0  0  0  0  0  0  0  0  0  0
  144.1573  134.6929  156.7692 H   0  0  0  0  0  0  0  0  0  0  0  0
  142.9004  135.2675  151.9847 H   0  0  0  0  0  0  0  0  0  0  0  0
  143.2341  134.0568  153.2000 H   0  0  0  0  0  0  0  0  0  0  0  0
  140.6935  134.5493  152.3278 H   0  0  0  0  0  0  0  0  0  0  0  0
  140.9910  134.1401  154.0120 H   0  0  0  0  0  0  0  0  0  0  0  0
  139.9999  136.6945  153.0092 H   0  0  0  0  0  0  0  0  0  0  0  0
  140.2473  136.1829  154.6731 H   0  0  0  0  0  0  0  0  0  0  0  0
  141.9343  137.8531  154.6123 H   0  0  0  0  0  0  0  0  0  0  0  0
  142.0952  137.7022  152.8695 H   0  0  0  0  0  0  0  0  0  0  0  0
  144.6174  137.7396  154.0796 H   0  0  0  0  0  0  0  0  0  0  0  0
  144.5101  137.0414  152.4853 H   0  0  0  0  0  0  0  0  0  0  0  0
  1  2  1  0  0  0  0
  1 22  1  0  0  0  0
  1 23  1  0  0  0  0
  1 24  1  0  0  0  0
  2  7  1  0  0  0  0
  2  3  2  0  0  0  0
  3  4  1  0  0  0  0
  4  5  1  0  0  0  0
  5  6  1  0  0  0  0
  5  7  2  0  0  0  0
  6 25  1  0  0  0  0
  6 26  1  0  0  0  0
  6 27  1  0  0  0  0
  7  8  1  0  0  0  0
  8  9  1  0  0  0  0
  8 28  1  0  0  0  0
  9 10  2  0  0  0  0
  9 11  1  0  0  0  0
 11 12  1  0  0  0  0
 11 29  1  0  0  0  0
 12 21  1  0  0  0  0
 12 13  1  0  0  0  0
 12 30  1  0  0  0  0
 13 14  1  0  0  0  0
 13 31  1  0  0  0  0
 13 32  1  0  0  0  0
 14 15  1  0  0  0  0
 14 33  1  0  0  0  0
 14 34  1  0  0  0  0
 15 16  1  0  0  0  0
 16 20  1  0  0  0  0
 16 17  1  0  0  0  0
 16 21  1  0  0  0  0
 17 18  1  0  0  0  0
 17 35  1  0  0  0  0
 17 36  1  0  0  0  0
 18 19  1  0  0  0  0
 18 37  1  0  0  0  0
 18 38  1  0  0  0  0
 19 20  1  0  0  0  0
 19 39  1  0  0  0  0
 19 40  1  0  0  0  0
 20 41  1  0  0  0  0
 20 42  1  0  0  0  0
 21 43  1  0  0  0  0
 21 44  1  0  0  0  0
M  END
> <s_m_source_file>
AV-unprocessed.smi

> <i_m_source_file_index>
2421

> <i_lp_mmshare_version>
43012

> <i_f3d_flags>
0

> <s_epik_input>
W0NIM11jMW5vYyhbQ0gzXSljMVtOSF1DKD1PKVtOSF1bQ0BASF0oW0NIMl0yKVtDSDJdW0NIMl1PQzIzW0NIMl1bQ0gyXVtDSDJdW0NIMl0z

> <s_epik_cmdline>
J2VwaWtfcHl0aG9uJywgJy1waCcsICc3LjAnLCAnLXRuJywgJzgnLCAnLW1hJywgJzIwMCcsICctbWV0YWxfYmluZGluZycsICctaW1hZScsICc8aW5maWxlLm1hZT4nLCAnLW9tYWUnLCAnPG91dGZpbGUubWFlPic=

> <r_lp_tautomer_probability>
1

> <r_epik_Ionization_Penalty>
3.59808e-05

> <r_epik_Ionization_Penalty_Charging>
0

> <r_epik_Ionization_Penalty_Neutral>
3.59808e-05

> <r_epik_State_Penalty>
-0

> <r_epik_Charging_Adjusted_Penalty>
0

> <i_epik_Tot_Q>
0

> <i_epik_Tot_abs_Q>
0

> <r_epik_Metal_State_Penalty>
-0

> <b_epik_Metal_Only>
0

> <s_lp_Force_Field>
OPLS_2005

> <r_lp_Energy>
43.4187

> <b_lp_Chiralities_Consistent>
1

> <s_lp_Variant>
AV-unprocessed.smi:2421-2

> <Gold.Version>
5.8.1

> <Gold.Id.Protein>
6NUR|6NUR_protein|mol2

> <Gold.PLP.Fitness>
37.1953

> <Gold.PLP.PLP>
-30.2913

> <Gold.PLP.part.hbond>
-4.0000

> <Gold.PLP.part.metal>
0.0000

> <Gold.PLP.part.buried>
-1.5968

> <Gold.PLP.part.nonpolar>
-23.4126

> <Gold.PLP.part.repulsive>
0.3111

> <Gold.PLP.ligand.clash>
0.0000

> <Gold.PLP.ligand.torsion>
0.4826

> <Gold.PLP.Chemscore.Hbond>
2.4580

> <Gold.PLP.Chemscore.CHOScore>
0.0000

> <Gold.PLP.Chemscore.Metal>
0.0000

> <Gold.Chemscore.Hbonds>
donor molecule, donor type, donor heavy atom, donor atom, acceptor molecule, acceptor atom, score
      L1  H     8    28       P1  7948  0.99
      L1  H    11    29       P1  7948  0.98
      P1  H  7989  7998       L1     3  0.42

> <Gold.PLP.Chemscore.Internal.Correction>
0.4952

> <Gold.Rescore>
     Score         DG    S(hbond)    S(metal)    S(lipo)     H(rot)  DE(clash)    DE(int)     intcor
     15.74     -17.08       1.93        0.00      66.01       1.00       0.02       1.33       ----

> <Gold.Chemscore.Fitness>
15.7436

> <Gold.Chemscore.DG>
-17.0849

> <Gold.Chemscore.ZeroCoef>
-5.4800

> <Gold.Chemscore.Hbond>
1.9286

> <Gold.Chemscore.Metal>
0.0000

> <Gold.Chemscore.Lipo>
66.0131

> <Gold.Chemscore.Internal_Hbond>
0.0000

> <Gold.Chemscore.DEClash>
0.0162

> <Gold.Chemscore.DEInternal>
1.3252

> <Gold.Chemscore.Rot>
1.0000

> <Gold.Chemscore.Internal.Correction>
   9.000000E+99

> <Gold.Chemscore.Hbonds>
donor molecule, donor type, donor heavy atom, donor atom, acceptor molecule, acceptor atom, score
      L1  H     8    28       P1  7948  0.94
      L1  H    11    29       P1  7948  0.93

> <Gold.Chemscore.Hbond.Weighted>
-6.4414

> <Gold.Chemscore.Metal.Weighted>
-0.0000

> <Gold.Chemscore.Lipo.Weighted>
-7.7235

> <Gold.Chemscore.Internal_Hbond.Weighted>
0.0000

> <Gold.Chemscore.DEClash.Weighted>
0.0162

> <Gold.Chemscore.DEInternal.Weighted>
1.3252

> <Gold.Chemscore.Rot.Weighted>
2.5600

> <Gold.Chemscore.Internal.Correction.Weighted>
   9.000000E+99

> <Gold.Protein.RotatedTorsions>
[ 6907 6896 6895 6894 ] final  133.45 input  -60.11 | X-H torsion
[ 7974 7965 7964 7962 ] final   17.87 input  175.53 | X-H torsion
[ 8008 7997 7996 7995 ] final  153.27 input   59.86 | X-H torsion
[ 10167 10162 10161 10158 ] final -143.05 input  -65.29 | X-H torsion
[ 10718 10713 10712 10709 ] final    1.33 input   66.30 | X-H torsion
[ 10763 10752 10751 10750 ] final   95.62 input  -60.55 | X-H torsion
[ 11005 11000 10999 10996 ] final -153.12 input  -57.11 | X-H torsion

> <Gold.Protein.ActiveResidues>
 VAL166  LYS551  ARG553  GLY616  TRP617  ASP618  TYR619  PRO620  LYS621  CYS622 
 ASP623  PHE694  ASN695  SER759  ASP760  ASP761  ALA762  ILE779  LEU786  VAL792 
 PHE793  MET794  SER795  GLU796  ALA797  LYS798  CYS799  TRP800  GLU811  SER814 

> <Gold.Protein.RotatedAtoms>
  152.3218  133.5862  159.5749 H   0  0  0  0  0  0  0  0  0  0  0  0  # atno 6907 bound_to 6896
  150.7375  133.9999  159.3643 H   0  0  0  0  0  0  0  0  0  0  0  0  # atno 6908 bound_to 6896
  151.7883  135.0743  160.0434 H   0  0  0  0  0  0  0  0  0  0  0  0  # atno 6909 bound_to 6896
  146.2204  139.8539  142.8617 H   0  0  0  0  0  0  0  0  0  0  0  0  # atno 7974 bound_to 7965
  156.2589  140.1998  156.6464 H   0  0  0  0  0  0  0  0  0  0  0  0  # atno 8008 bound_to 7997
  154.6570  140.0565  157.0045 H   0  0  0  0  0  0  0  0  0  0  0  0  # atno 8009 bound_to 7997
  155.1332  140.3235  155.4472 H   0  0  0  0  0  0  0  0  0  0  0  0  # atno 8010 bound_to 7997
  139.8030  143.7807  152.2659 H   0  0  0  0  0  0  0  0  0  0  0  0  # atno 10167 bound_to 10162
  156.8466  130.5539  149.5673 H   0  0  0  0  0  0  0  0  0  0  0  0  # atno 10718 bound_to 10713
  153.2554  135.4247  155.0840 H   0  0  0  0  0  0  0  0  0  0  0  0  # atno 10763 bound_to 10752
  154.8398  135.3436  154.6454 H   0  0  0  0  0  0  0  0  0  0  0  0  # atno 10764 bound_to 10752
  153.6874  135.7035  153.5157 H   0  0  0  0  0  0  0  0  0  0  0  0  # atno 10765 bound_to 10752
  140.7116  134.3826  157.5197 H   0  0  0  0  0  0  0  0  0  0  0  0  # atno 11005 bound_to 11000
  145.2773  141.0127  143.3737 LP  0  0  0  0  0  0  0  0  0  0  0  0  # atno 17320 bound_to 7965
  144.9177  139.4450  143.6556 LP  0  0  0  0  0  0  0  0  0  0  0  0  # atno 17321 bound_to 7965
  139.7933  144.7402  150.9925 LP  0  0  0  0  0  0  0  0  0  0  0  0  # atno 17342 bound_to 10162
  140.7820  143.4420  151.0538 LP  0  0  0  0  0  0  0  0  0  0  0  0  # atno 17343 bound_to 10162
  156.0851  130.5851  150.9633 LP  0  0  0  0  0  0  0  0  0  0  0  0  # atno 17370 bound_to 10713
  157.6326  131.0919  150.8411 LP  0  0  0  0  0  0  0  0  0  0  0  0  # atno 17371 bound_to 10713
  139.8870  134.8894  156.2552 LP  0  0  0  0  0  0  0  0  0  0  0  0  # atno 17394 bound_to 11000
  141.0080  133.7112  156.1065 LP  0  0  0  0  0  0  0  0  0  0  0  0  # atno 17395 bound_to 11000

$$$$
