AV-unprocessed.smi:1349|AV-procd|sdf|5519|dock8
  -GOLD-   22720 5103D 1   1.00000     0.00000
 Structure written by MMmdl.
 43 45  0  0  0  0  0  0  0  0  2 V2000
  151.2600  135.2760  155.4830 O   0  0  0  0  0  0  0  0  0  0  0  0
  151.1736  136.2849  156.4671 C   0  0  0  0  0  0  0  0  0  0  0  0
  152.0447  137.4885  156.0797 C   0  0  0  0  0  0  0  0  0  0  0  0
  151.8794  137.9074  154.6100 C   0  0  0  0  0  0  0  0  0  0  0  0
  150.6966  138.8014  154.4255 C   0  0  0  0  0  0  0  0  0  0  0  0
  149.6311  138.5565  153.6117 N   0  3  0  0  0  0  0  0  0  0  0  0
  148.7169  139.6071  153.7009 C   0  0  0  0  0  0  0  0  0  0  0  0
  147.4962  139.8102  153.0645 C   0  0  0  0  0  0  0  0  0  0  0  0
  146.8085  141.0007  153.3797 C   0  0  0  0  0  0  0  0  0  0  0  0
  147.3380  141.9344  154.2944 C   0  0  0  0  0  0  0  0  0  0  0  0
  148.5765  141.7172  154.9339 C   0  0  0  0  0  0  0  0  0  0  0  0
  149.2485  140.5368  154.6177 C   0  0  0  0  0  0  0  0  0  0  0  0
  150.4662  139.9961  155.0434 N   0  0  0  0  0  0  0  0  0  0  0  0
  151.2806  140.7406  156.0152 C   0  0  0  0  0  0  0  0  0  0  0  0
  150.5116  141.0347  157.3109 C   0  0  0  0  0  0  0  0  0  0  0  0
  150.4715  142.4409  157.5157 O   0  0  0  0  0  0  0  0  0  0  0  0
  151.0975  142.9602  158.6276 C   0  0  0  0  0  0  0  0  0  0  0  0
  150.9360  144.3411  158.8639 C   0  0  0  0  0  0  0  0  0  0  0  0
  151.5369  144.9567  159.9787 C   0  0  0  0  0  0  0  0  0  0  0  0
  152.3106  144.1925  160.8717 C   0  0  0  0  0  0  0  0  0  0  0  0
  152.4823  142.8140  160.6465 C   0  0  0  0  0  0  0  0  0  0  0  0
  151.8808  142.1983  159.5312 C   0  0  0  0  0  0  0  0  0  0  0  0
  150.7617  135.5481  154.7273 H   0  0  0  0  0  0  0  0  0  0  0  0
  150.1324  136.5823  156.5960 H   0  0  0  0  0  0  0  0  0  0  0  0
  151.5109  135.8693  157.4170 H   0  0  0  0  0  0  0  0  0  0  0  0
  151.7810  138.3315  156.7193 H   0  0  0  0  0  0  0  0  0  0  0  0
  153.0912  137.2633  156.2902 H   0  0  0  0  0  0  0  0  0  0  0  0
  152.7726  138.4222  154.2556 H   0  0  0  0  0  0  0  0  0  0  0  0
  151.7593  137.0261  153.9790 H   0  0  0  0  0  0  0  0  0  0  0  0
  147.0900  139.0969  152.3624 H   0  0  0  0  0  0  0  0  0  0  0  0
  145.8568  141.2019  152.9099 H   0  0  0  0  0  0  0  0  0  0  0  0
  146.7835  142.8363  154.5102 H   0  0  0  0  0  0  0  0  0  0  0  0
  148.9747  142.4391  155.6314 H   0  0  0  0  0  0  0  0  0  0  0  0
  152.1934  140.1797  156.2175 H   0  0  0  0  0  0  0  0  0  0  0  0
  151.5904  141.6745  155.5458 H   0  0  0  0  0  0  0  0  0  0  0  0
  149.4990  140.6354  157.2354 H   0  0  0  0  0  0  0  0  0  0  0  0
  151.0067  140.5431  158.1496 H   0  0  0  0  0  0  0  0  0  0  0  0
  150.3440  144.9350  158.1827 H   0  0  0  0  0  0  0  0  0  0  0  0
  151.4044  146.0152  160.1478 H   0  0  0  0  0  0  0  0  0  0  0  0
  152.7719  144.6629  161.7275 H   0  0  0  0  0  0  0  0  0  0  0  0
  153.0768  142.2266  161.3306 H   0  0  0  0  0  0  0  0  0  0  0  0
  152.0365  141.1395  159.3908 H   0  0  0  0  0  0  0  0  0  0  0  0
  149.5409  137.7306  153.0342 H   0  0  0  0  0  0  0  0  0  0  0  0
  1  2  1  0  0  0  0
  1 23  1  0  0  0  0
  2  3  1  0  0  0  0
  2 24  1  0  0  0  0
  2 25  1  0  0  0  0
  3  4  1  0  0  0  0
  3 26  1  0  0  0  0
  3 27  1  0  0  0  0
  4  5  1  0  0  0  0
  4 28  1  0  0  0  0
  4 29  1  0  0  0  0
  5 13  1  0  0  0  0
  5  6  2  0  0  0  0
  6  7  1  0  0  0  0
  6 43  1  0  0  0  0
  7 12  2  0  0  0  0
  7  8  1  0  0  0  0
  8  9  2  0  0  0  0
  8 30  1  0  0  0  0
  9 10  1  0  0  0  0
  9 31  1  0  0  0  0
 10 11  2  0  0  0  0
 10 32  1  0  0  0  0
 11 12  1  0  0  0  0
 11 33  1  0  0  0  0
 12 13  1  0  0  0  0
 13 14  1  0  0  0  0
 14 15  1  0  0  0  0
 14 34  1  0  0  0  0
 14 35  1  0  0  0  0
 15 16  1  0  0  0  0
 15 36  1  0  0  0  0
 15 37  1  0  0  0  0
 16 17  1  0  0  0  0
 17 22  1  0  0  0  0
 17 18  2  0  0  0  0
 18 19  1  0  0  0  0
 18 38  1  0  0  0  0
 19 20  2  0  0  0  0
 19 39  1  0  0  0  0
 20 21  1  0  0  0  0
 20 40  1  0  0  0  0
 21 22  2  0  0  0  0
 21 41  1  0  0  0  0
 22 42  1  0  0  0  0
M  CHG  1   6   1
M  END
> <s_m_source_file>
AV-unprocessed.smi

> <i_m_source_file_index>
1349

> <i_lp_mmshare_version>
43012

> <i_f3d_flags>
0

> <s_epik_input>
W09IXVtDSDJdW0NIMl1bQ0gyXWMobjEpbihjKGMxMilbY0hdW2NIXVtjSF1bY0hdMilbQ0gyXVtDSDJdT2MzW2NIXVtjSF1bY0hdW2NIXVtjSF0z

> <s_epik_cmdline>
J2VwaWtfcHl0aG9uJywgJy1waCcsICc3LjAnLCAnLXRuJywgJzgnLCAnLW1hJywgJzIwMCcsICctbWV0YWxfYmluZGluZycsICctaW1hZScsICc8aW5maWxlLm1hZT4nLCAnLW9tYWUnLCAnPG91dGZpbGUubWFlPic=

> <r_lp_tautomer_probability>
1

> <r_epik_Ionization_Penalty>
0.856072

> <r_epik_Ionization_Penalty_Charging>
0.856072

> <r_epik_Ionization_Penalty_Neutral>
1.64909e-07

> <r_epik_State_Penalty>
0.892118

> <r_epik_Charging_Adjusted_Penalty>
1.74819

> <i_epik_Tot_Q>
1

> <i_epik_Tot_abs_Q>
1

> <r_epik_Metal_State_Penalty>
4.83641

> <b_epik_Metal_Only>
0

> <s_lp_Force_Field>
OPLS_2005

> <r_lp_Energy>
19.1857

> <b_lp_Chiralities_Consistent>
1

> <s_lp_Variant>
AV-unprocessed.smi:1349-2

> <Gold.Version>
5.8.1

> <Gold.Id.Protein>
6NUR|6NUR_protein|mol2

> <Gold.PLP.Fitness>
55.8042

> <Gold.PLP.PLP>
-48.6715

> <Gold.PLP.part.hbond>
-3.0000

> <Gold.PLP.part.metal>
0.0000

> <Gold.PLP.part.buried>
1.6475

> <Gold.PLP.part.nonpolar>
-47.3003

> <Gold.PLP.part.repulsive>
0.4964

> <Gold.PLP.ligand.clash>
0.0000

> <Gold.PLP.ligand.torsion>
0.9695

> <Gold.PLP.Chemscore.Hbond>
3.0000

> <Gold.PLP.Chemscore.CHOScore>
0.0000

> <Gold.PLP.Chemscore.Metal>
0.0000

> <Gold.Chemscore.Hbonds>
donor molecule, donor type, donor heavy atom, donor atom, acceptor molecule, acceptor atom, score
      L1  H     6    43       P1  7948  2.00
      P1  H 10752 10765       L1     1  0.96

> <Gold.PLP.Chemscore.Internal.Correction>
0.0716

> <Gold.Rescore>
     Score         DG    S(hbond)    S(metal)    S(lipo)     H(rot)  DE(clash)    DE(int)     intcor
     17.24     -18.59       1.28        0.00     130.38       2.51       0.31       1.04       ----

> <Gold.Chemscore.Fitness>
17.2433

> <Gold.Chemscore.DG>
-18.5874

> <Gold.Chemscore.ZeroCoef>
-5.4800

> <Gold.Chemscore.Hbond>
1.2827

> <Gold.Chemscore.Metal>
0.0000

> <Gold.Chemscore.Lipo>
130.3806

> <Gold.Chemscore.Internal_Hbond>
0.0000

> <Gold.Chemscore.DEClash>
0.3080

> <Gold.Chemscore.DEInternal>
1.0361

> <Gold.Chemscore.Rot>
2.5123

> <Gold.Chemscore.Internal.Correction>
   9.000000E+99

> <Gold.Chemscore.Hbonds>
donor molecule, donor type, donor heavy atom, donor atom, acceptor molecule, acceptor atom, score
      L1  H     6    43       P1  7948  0.81
      P1  H 10752 10765       L1     1  0.12

> <Gold.Chemscore.Hbond.Weighted>
-4.2843

> <Gold.Chemscore.Metal.Weighted>
-0.0000

> <Gold.Chemscore.Lipo.Weighted>
-15.2545

> <Gold.Chemscore.Internal_Hbond.Weighted>
0.0000

> <Gold.Chemscore.DEClash.Weighted>
0.3080

> <Gold.Chemscore.DEInternal.Weighted>
1.0361

> <Gold.Chemscore.Rot.Weighted>
6.4314

> <Gold.Chemscore.Internal.Correction.Weighted>
   9.000000E+99

> <Gold.Protein.RotatedTorsions>
[ 6907 6896 6895 6894 ] final  174.45 input  -60.11 | X-H torsion
[ 7974 7965 7964 7962 ] final -160.22 input  175.53 | X-H torsion
[ 8008 7997 7996 7995 ] final  100.27 input   59.86 | X-H torsion
[ 10167 10162 10161 10158 ] final   67.90 input  -65.29 | X-H torsion
[ 10718 10713 10712 10709 ] final  -14.53 input   66.30 | X-H torsion
[ 10763 10752 10751 10750 ] final -156.83 input  -60.55 | X-H torsion
[ 11005 11000 10999 10996 ] final  148.89 input  -57.11 | X-H torsion

> <Gold.Protein.ActiveResidues>
 VAL166  LYS551  ARG553  GLY616  TRP617  ASP618  TYR619  PRO620  LYS621  CYS622 
 ASP623  PHE694  ASN695  SER759  ASP760  ASP761  ALA762  ILE779  LEU786  VAL792 
 PHE793  MET794  SER795  GLU796  ALA797  LYS798  CYS799  TRP800  GLU811  SER814 

> <Gold.Protein.RotatedAtoms>
  151.7521  133.3328  159.3394 H   0  0  0  0  0  0  0  0  0  0  0  0  # atno 6907 bound_to 6896
  150.7531  134.6183  159.6132 H   0  0  0  0  0  0  0  0  0  0  0  0  # atno 6908 bound_to 6896
  152.3462  134.7070  160.0301 H   0  0  0  0  0  0  0  0  0  0  0  0  # atno 6909 bound_to 6896
  144.7435  140.3573  143.6103 H   0  0  0  0  0  0  0  0  0  0  0  0  # atno 7974 bound_to 7965
  156.1186  140.3216  155.8176 H   0  0  0  0  0  0  0  0  0  0  0  0  # atno 8008 bound_to 7997
  155.4544  140.0535  157.3015 H   0  0  0  0  0  0  0  0  0  0  0  0  # atno 8009 bound_to 7997
  154.4811  140.2053  155.9775 H   0  0  0  0  0  0  0  0  0  0  0  0  # atno 8010 bound_to 7997
  140.0845  144.5042  150.7139 H   0  0  0  0  0  0  0  0  0  0  0  0  # atno 10167 bound_to 10162
  156.6146  130.4859  149.6188 H   0  0  0  0  0  0  0  0  0  0  0  0  # atno 10718 bound_to 10713
  154.7683  135.3137  154.8241 H   0  0  0  0  0  0  0  0  0  0  0  0  # atno 10763 bound_to 10752
  153.8983  135.6818  153.4761 H   0  0  0  0  0  0  0  0  0  0  0  0  # atno 10764 bound_to 10752
  153.1292  135.4787  154.9256 H   0  0  0  0  0  0  0  0  0  0  0  0  # atno 10765 bound_to 10752
  140.0998  134.8990  157.1779 H   0  0  0  0  0  0  0  0  0  0  0  0  # atno 11005 bound_to 11000
  145.7213  139.1710  143.2483 LP  0  0  0  0  0  0  0  0  0  0  0  0  # atno 17320 bound_to 7965
  146.1275  140.7229  142.9428 LP  0  0  0  0  0  0  0  0  0  0  0  0  # atno 17321 bound_to 7965
  140.7060  143.2469  151.4724 LP  0  0  0  0  0  0  0  0  0  0  0  0  # atno 17342 bound_to 10162
  139.5760  144.1818  152.1903 LP  0  0  0  0  0  0  0  0  0  0  0  0  # atno 17343 bound_to 10162
  156.2362  130.6824  151.1511 LP  0  0  0  0  0  0  0  0  0  0  0  0  # atno 17370 bound_to 10713
  157.7245  131.0659  150.5994 LP  0  0  0  0  0  0  0  0  0  0  0  0  # atno 17371 bound_to 10713
  140.3236  134.2889  155.7241 LP  0  0  0  0  0  0  0  0  0  0  0  0  # atno 17394 bound_to 11000
  141.2102  133.7725  156.9945 LP  0  0  0  0  0  0  0  0  0  0  0  0  # atno 17395 bound_to 11000

$$$$
