AV-unprocessed.smi:1703|AV-procd|sdf|6878|dock5
  -GOLD-   22720 8 83D 1   1.00000     0.00000
 Structure written by MMmdl.
 50 52  0  0  0  0  0  0  0  0  3 V2000
  145.7160  135.2452  159.1158 C   0  0  0  0  0  0  0  0  0  0  0  0
  147.0224  134.6297  159.6489 C   0  0  1  0  0  0  0  0  0  0  0  0
  148.2779  135.0976  158.8869 C   0  0  0  0  0  0  0  0  0  0  0  0
  148.6192  136.4972  159.2333 N   0  3  2  0  0  0  0  0  0  0  0  0
  149.7715  137.0162  158.4531 C   0  0  0  0  0  0  0  0  0  0  0  0
  149.7704  138.5545  158.3562 C   0  0  2  0  0  0  0  0  0  0  0  0
  148.4430  138.9990  158.1493 O   0  0  0  0  0  0  0  0  0  0  0  0
  150.6656  139.0598  157.2076 C   0  0  0  0  0  0  0  0  0  0  0  0
  150.6608  140.5279  157.0890 N   0  0  0  0  0  0  0  0  0  0  0  0
  150.1223  141.3246  156.1205 C   0  0  0  0  0  0  0  0  0  0  0  0
  149.3808  140.8718  154.9026 C   0  0  0  0  0  0  0  0  0  0  0  0
  150.1904  140.1613  153.9899 O   0  0  0  0  0  0  0  0  0  0  0  0
  150.4012  142.6156  156.4603 N   0  3  0  0  0  0  0  0  0  0  0  0
  151.1179  142.6472  157.6563 C   0  0  0  0  0  0  0  0  0  0  0  0
  151.6181  143.7198  158.3880 C   0  0  0  0  0  0  0  0  0  0  0  0
  152.3126  143.4073  159.5746 C   0  0  0  0  0  0  0  0  0  0  0  0
  152.4888  142.0719  159.9912 C   0  0  0  0  0  0  0  0  0  0  0  0
  151.9778  140.9926  159.2401 C   0  0  0  0  0  0  0  0  0  0  0  0
  151.2893  141.3094  158.0682 C   0  0  0  0  0  0  0  0  0  0  0  0
  148.7772  136.6391  160.7006 C   0  0  0  0  0  0  0  0  0  0  0  0
  147.4933  136.1875  161.4204 C   0  0  2  0  0  0  0  0  0  0  0  0
  147.6410  136.2340  162.9451 C   0  0  0  0  0  0  0  0  0  0  0  0
  147.1894  134.8449  161.0507 O   0  0  0  0  0  0  0  0  0  0  0  0
  145.5438  134.9489  158.0807 H   0  0  0  0  0  0  0  0  0  0  0  0
  145.7297  136.3346  159.1416 H   0  0  0  0  0  0  0  0  0  0  0  0
  144.8598  134.9074  159.6999 H   0  0  0  0  0  0  0  0  0  0  0  0
  146.9378  133.5503  159.5181 H   0  0  0  0  0  0  0  0  0  0  0  0
  149.1227  134.4534  159.1361 H   0  0  0  0  0  0  0  0  0  0  0  0
  148.1146  135.0037  157.8124 H   0  0  0  0  0  0  0  0  0  0  0  0
  150.7001  136.6594  158.9017 H   0  0  0  0  0  0  0  0  0  0  0  0
  149.7464  136.6065  157.4420 H   0  0  0  0  0  0  0  0  0  0  0  0
  150.1286  138.9896  159.2887 H   0  0  0  0  0  0  0  0  0  0  0  0
  148.2767  139.0364  157.2197 H   0  0  0  0  0  0  0  0  0  0  0  0
  151.6976  138.7527  157.3789 H   0  0  0  0  0  0  0  0  0  0  0  0
  150.3777  138.6151  156.2550 H   0  0  0  0  0  0  0  0  0  0  0  0
  148.5519  140.2342  155.2104 H   0  0  0  0  0  0  0  0  0  0  0  0
  148.9548  141.7344  154.3905 H   0  0  0  0  0  0  0  0  0  0  0  0
  149.7399  140.1144  153.1600 H   0  0  0  0  0  0  0  0  0  0  0  0
  151.4861  144.7435  158.0693 H   0  0  0  0  0  0  0  0  0  0  0  0
  152.7190  144.2078  160.1761 H   0  0  0  0  0  0  0  0  0  0  0  0
  153.0279  141.8710  160.9059 H   0  0  0  0  0  0  0  0  0  0  0  0
  152.1245  139.9760  159.5718 H   0  0  0  0  0  0  0  0  0  0  0  0
  149.6282  136.0435  161.0355 H   0  0  0  0  0  0  0  0  0  0  0  0
  148.9919  137.6746  160.9631 H   0  0  0  0  0  0  0  0  0  0  0  0
  146.6675  136.8431  161.1425 H   0  0  0  0  0  0  0  0  0  0  0  0
  147.8662  137.2442  163.2878 H   0  0  0  0  0  0  0  0  0  0  0  0
  148.4429  135.5781  163.2852 H   0  0  0  0  0  0  0  0  0  0  0  0
  146.7204  135.9156  163.4350 H   0  0  0  0  0  0  0  0  0  0  0  0
  147.8214  137.0561  158.9648 H   0  0  0  0  0  0  0  0  0  0  0  0
  150.1214  143.4155  155.9065 H   0  0  0  0  0  0  0  0  0  0  0  0
  1  2  1  0  0  0  0
  1 24  1  0  0  0  0
  1 25  1  0  0  0  0
  1 26  1  0  0  0  0
  2 23  1  0  0  0  0
  2  3  1  0  0  0  0
  2 27  1  0  0  0  0
  3  4  1  0  0  0  0
  3 28  1  0  0  0  0
  3 29  1  0  0  0  0
  4  5  1  0  0  0  0
  4 20  1  0  0  0  0
  4 49  1  0  0  0  0
  5  6  1  0  0  0  0
  5 30  1  0  0  0  0
  5 31  1  0  0  0  0
  6  7  1  0  0  0  0
  6  8  1  0  0  0  0
  6 32  1  0  0  0  0
  7 33  1  0  0  0  0
  8  9  1  0  0  0  0
  8 34  1  0  0  0  0
  8 35  1  0  0  0  0
  9 19  1  0  0  0  0
  9 10  1  0  0  0  0
 10 11  1  0  0  0  0
 10 13  2  0  0  0  0
 11 12  1  0  0  0  0
 11 36  1  0  0  0  0
 11 37  1  0  0  0  0
 12 38  1  0  0  0  0
 13 14  1  0  0  0  0
 13 50  1  0  0  0  0
 14 19  2  0  0  0  0
 14 15  1  0  0  0  0
 15 16  2  0  0  0  0
 15 39  1  0  0  0  0
 16 17  1  0  0  0  0
 16 40  1  0  0  0  0
 17 18  2  0  0  0  0
 17 41  1  0  0  0  0
 18 19  1  0  0  0  0
 18 42  1  0  0  0  0
 20 21  1  0  0  0  0
 20 43  1  0  0  0  0
 20 44  1  0  0  0  0
 21 22  1  0  0  0  0
 21 23  1  0  0  0  0
 21 45  1  0  0  0  0
 22 46  1  0  0  0  0
 22 47  1  0  0  0  0
 22 48  1  0  0  0  0
M  CHG  1   4   1
M  CHG  1  13   1
M  END
> <s_m_source_file>
AV-unprocessed.smi

> <i_m_source_file_index>
1703

> <i_lp_mmshare_version>
43012

> <i_f3d_flags>
0

> <s_epik_input>
W0NIM11bQ0BASF0xW0NIMl1OKFtDSDJdW0NASF0oTzEpW0NIM10pW0NIMl1bQ0BIXShbT0hdKVtDSDJdbihjKG4yKVtDSDJdW09IXSljKGMyMylbY0hdW2NIXVtjSF1bY0hdMw==

> <s_epik_cmdline>
J2VwaWtfcHl0aG9uJywgJy1waCcsICc3LjAnLCAnLXRuJywgJzgnLCAnLW1hJywgJzIwMCcsICctbWV0YWxfYmluZGluZycsICctaW1hZScsICc8aW5maWxlLm1hZT4nLCAnLW9tYWUnLCAnPG91dGZpbGUubWFlPic=

> <r_epik_Ionization_Penalty>
2.22579

> <r_epik_Ionization_Penalty_Charging>
2.22492

> <r_epik_Ionization_Penalty_Neutral>
0.000870007

> <r_epik_State_Penalty>
2.3141

> <r_epik_Charging_Adjusted_Penalty>
4.53902

> <i_epik_Tot_Q>
2

> <i_epik_Tot_abs_Q>
2

> <r_epik_Metal_State_Penalty>
6.36517

> <b_epik_Metal_Only>
0

> <s_lp_Force_Field>
OPLS_2005

> <r_lp_Energy>
31.039

> <b_lp_Chiralities_Consistent>
1

> <s_lp_Variant>
AV-unprocessed.smi:1703-26

> <Gold.Version>
5.8.1

> <Gold.Id.Protein>
6NUR|6NUR_protein|mol2

> <Gold.PLP.Fitness>
52.4005

> <Gold.PLP.PLP>
-42.1146

> <Gold.PLP.part.hbond>
-3.7258

> <Gold.PLP.part.metal>
0.0000

> <Gold.PLP.part.buried>
-5.2858

> <Gold.PLP.part.nonpolar>
-35.0975

> <Gold.PLP.part.repulsive>
0.2368

> <Gold.PLP.ligand.clash>
0.0000

> <Gold.PLP.ligand.torsion>
0.5088

> <Gold.PLP.Chemscore.Hbond>
3.7433

> <Gold.PLP.Chemscore.CHOScore>
0.0000

> <Gold.PLP.Chemscore.Metal>
0.0000

> <Gold.Chemscore.Hbonds>
donor molecule, donor type, donor heavy atom, donor atom, acceptor molecule, acceptor atom, score
      L1  H    12    38       P1  7957  1.00
      L1  H    13    50       P1  8028  1.89
      P1  H  7989  7998       L1    12  0.87

> <Gold.PLP.Chemscore.Internal.Correction>
0.0738

> <Gold.Rescore>
     Score         DG    S(hbond)    S(metal)    S(lipo)     H(rot)  DE(clash)    DE(int)     intcor
     17.20     -17.88       2.39        0.00     104.29       3.04       0.03       0.65       ----

> <Gold.Chemscore.Fitness>
17.2032

> <Gold.Chemscore.DG>
-17.8845

> <Gold.Chemscore.ZeroCoef>
-5.4800

> <Gold.Chemscore.Hbond>
2.3891

> <Gold.Chemscore.Metal>
0.0000

> <Gold.Chemscore.Lipo>
104.2871

> <Gold.Chemscore.Internal_Hbond>
0.0000

> <Gold.Chemscore.DEClash>
0.0272

> <Gold.Chemscore.DEInternal>
0.6542

> <Gold.Chemscore.Rot>
3.0378

> <Gold.Chemscore.Internal.Correction>
   9.000000E+99

> <Gold.Chemscore.Hbonds>
donor molecule, donor type, donor heavy atom, donor atom, acceptor molecule, acceptor atom, score
      L1  H    12    38       P1  7957  0.94
      L1  H    13    50       P1  8028  0.91
      P1  H  7989  7998       L1    12  0.18

> <Gold.Chemscore.Hbond.Weighted>
-7.9796

> <Gold.Chemscore.Metal.Weighted>
-0.0000

> <Gold.Chemscore.Lipo.Weighted>
-12.2016

> <Gold.Chemscore.Internal_Hbond.Weighted>
0.0000

> <Gold.Chemscore.DEClash.Weighted>
0.0272

> <Gold.Chemscore.DEInternal.Weighted>
0.6542

> <Gold.Chemscore.Rot.Weighted>
7.7767

> <Gold.Chemscore.Internal.Correction.Weighted>
   9.000000E+99

> <Gold.Protein.RotatedTorsions>
[ 6907 6896 6895 6894 ] final -161.17 input  -60.11 | X-H torsion
[ 7974 7965 7964 7962 ] final   54.58 input  175.53 | X-H torsion
[ 8008 7997 7996 7995 ] final -145.99 input   59.86 | X-H torsion
[ 10167 10162 10161 10158 ] final   81.02 input  -65.29 | X-H torsion
[ 10718 10713 10712 10709 ] final -170.76 input   66.30 | X-H torsion
[ 10763 10752 10751 10750 ] final  173.51 input  -60.55 | X-H torsion
[ 11005 11000 10999 10996 ] final  100.14 input  -57.11 | X-H torsion

> <Gold.Protein.ActiveResidues>
 VAL166  LYS551  ARG553  GLY616  TRP617  ASP618  TYR619  PRO620  LYS621  CYS622 
 ASP623  PHE694  ASN695  SER759  ASP760  ASP761  ALA762  ILE779  LEU786  VAL792 
 PHE793  MET794  SER795  GLU796  ALA797  LYS798  CYS799  TRP800  GLU811  SER814 

> <Gold.Protein.RotatedAtoms>
  151.3605  133.3891  159.2688 H   0  0  0  0  0  0  0  0  0  0  0  0  # atno 6907 bound_to 6896
  150.9729  134.9100  159.7809 H   0  0  0  0  0  0  0  0  0  0  0  0  # atno 6908 bound_to 6896
  152.5191  134.3567  159.9322 H   0  0  0  0  0  0  0  0  0  0  0  0  # atno 6909 bound_to 6896
  145.9594  139.4045  143.0257 H   0  0  0  0  0  0  0  0  0  0  0  0  # atno 7974 bound_to 7965
  155.5521  140.0617  157.2847 H   0  0  0  0  0  0  0  0  0  0  0  0  # atno 8008 bound_to 7997
  154.4417  140.1900  156.0742 H   0  0  0  0  0  0  0  0  0  0  0  0  # atno 8009 bound_to 7997
  156.0508  140.3284  155.7353 H   0  0  0  0  0  0  0  0  0  0  0  0  # atno 8010 bound_to 7997
  139.9436  144.6073  150.8228 H   0  0  0  0  0  0  0  0  0  0  0  0  # atno 10167 bound_to 10162
  156.7309  130.9306  151.3104 H   0  0  0  0  0  0  0  0  0  0  0  0  # atno 10718 bound_to 10713
  154.4411  135.2762  155.1847 H   0  0  0  0  0  0  0  0  0  0  0  0  # atno 10763 bound_to 10752
  154.3713  135.6108  153.5745 H   0  0  0  0  0  0  0  0  0  0  0  0  # atno 10764 bound_to 10752
  152.9841  135.5858  154.4739 H   0  0  0  0  0  0  0  0  0  0  0  0  # atno 10765 bound_to 10752
  139.8771  134.9127  156.4711 H   0  0  0  0  0  0  0  0  0  0  0  0  # atno 11005 bound_to 11000
  145.8061  140.9748  143.0973 LP  0  0  0  0  0  0  0  0  0  0  0  0  # atno 17320 bound_to 7965
  144.6812  139.9862  143.7484 LP  0  0  0  0  0  0  0  0  0  0  0  0  # atno 17321 bound_to 7965
  140.7604  143.3149  151.2756 LP  0  0  0  0  0  0  0  0  0  0  0  0  # atno 17342 bound_to 10162
  139.6684  144.0063  152.2738 LP  0  0  0  0  0  0  0  0  0  0  0  0  # atno 17343 bound_to 10162
  157.6859  130.9185  150.0385 LP  0  0  0  0  0  0  0  0  0  0  0  0  # atno 17370 bound_to 10713
  156.1529  130.3642  149.9411 LP  0  0  0  0  0  0  0  0  0  0  0  0  # atno 17371 bound_to 10713
  140.8795  133.7928  155.9451 LP  0  0  0  0  0  0  0  0  0  0  0  0  # atno 17394 bound_to 11000
  140.8869  134.2543  157.5115 LP  0  0  0  0  0  0  0  0  0  0  0  0  # atno 17395 bound_to 11000

$$$$
