AV-unprocessed.smi:278|AV-procd|sdf|2092|dock2
  -GOLD-   2262021373D 1   1.00000     0.00000
 Structure written by MMmdl.
 50 54  0  0  0  0  0  0  0  0  1 V2000
  152.4927  140.1435  155.4880 O   0  0  0  0  0  0  0  0  0  0  0  0
  151.1203  139.8379  155.9194 S   0  0  0  0  0  0  0  0  0  0  0  0
  150.5146  138.5294  155.6269 O   0  0  0  0  0  0  0  0  0  0  0  0
  150.9713  140.1777  157.7164 C   0  0  0  0  0  0  0  0  0  0  0  0
  150.2413  141.5219  157.8412 C   0  0  0  0  0  0  0  0  0  0  0  0
  149.3147  141.7078  156.6259 C   0  0  2  0  0  0  0  0  0  0  0  0
  148.0398  140.8594  156.6794 C   0  0  0  0  0  0  0  0  0  0  0  0
  147.6915  140.6081  155.2879 N   0  0  0  0  0  0  0  0  0  0  0  0
  146.7001  139.7387  154.9598 C   0  0  0  0  0  0  0  0  0  0  0  0
  145.6679  139.5603  155.8271 N   0  0  0  0  0  0  0  0  0  0  0  0
  144.6802  138.7072  155.5423 C   0  0  0  0  0  0  0  0  0  0  0  0
  144.5225  137.9456  154.4589 N   0  0  0  0  0  0  0  0  0  0  0  0
  145.5443  138.1294  153.5756 C   0  0  0  0  0  0  0  0  0  0  0  0
  146.6604  138.9992  153.7409 C   0  0  0  0  0  0  0  0  0  0  0  0
  147.4808  138.9230  152.6198 N   0  0  0  0  0  0  0  0  0  0  0  0
  146.8944  138.0497  151.8479 C   0  0  0  0  0  0  0  0  0  0  0  0
  145.7299  137.5164  152.3498 N   0  0  0  0  0  0  0  0  0  0  0  0
  144.8876  136.5176  151.7183 C   0  0  0  0  0  0  0  0  0  0  0  0
  145.6578  135.2376  151.3289 C   0  0  1  0  0  0  0  0  0  0  0  0
  146.5300  134.9316  152.3982 O   0  0  0  0  0  0  0  0  0  0  0  0
  144.7584  134.0140  151.0411 C   0  0  2  0  0  0  0  0  0  0  0  0
  145.4320  132.6598  151.2678 C   0  0  0  0  0  0  0  0  0  0  0  0
  144.5950  131.7103  150.4280 C   0  0  0  0  0  0  0  0  0  0  0  0
  143.9234  132.6252  149.4006 C   0  0  0  0  0  0  0  0  0  0  0  0
  144.4387  133.9237  149.6600 O   0  0  0  0  0  0  0  0  0  0  0  0
  148.8754  140.7193  154.4450 C   0  0  0  0  0  0  0  0  0  0  0  0
  150.0094  141.1996  155.3620 C   0  0  2  0  0  0  0  0  0  0  0  0
  149.0381  142.7557  156.5031 H   0  0  0  0  0  0  0  0  0  0  0  0
  150.6255  141.9683  154.8945 H   0  0  0  0  0  0  0  0  0  0  0  0
  150.3837  139.3749  158.1618 H   0  0  0  0  0  0  0  0  0  0  0  0
  151.9568  140.1841  158.1822 H   0  0  0  0  0  0  0  0  0  0  0  0
  149.6993  141.6016  158.7840 H   0  0  0  0  0  0  0  0  0  0  0  0
  150.9824  142.3221  157.8351 H   0  0  0  0  0  0  0  0  0  0  0  0
  148.2213  139.9097  157.1847 H   0  0  0  0  0  0  0  0  0  0  0  0
  147.2370  141.3775  157.2050 H   0  0  0  0  0  0  0  0  0  0  0  0
  143.9062  138.6211  156.2906 H   0  0  0  0  0  0  0  0  0  0  0  0
  147.3045  137.7608  150.8909 H   0  0  0  0  0  0  0  0  0  0  0  0
  144.0737  136.2765  152.4035 H   0  0  0  0  0  0  0  0  0  0  0  0
  144.4293  136.9649  150.8350 H   0  0  0  0  0  0  0  0  0  0  0  0
  146.2755  135.4401  150.4531 H   0  0  0  0  0  0  0  0  0  0  0  0
  147.3882  135.2681  152.1901 H   0  0  0  0  0  0  0  0  0  0  0  0
  143.8351  134.0718  151.6212 H   0  0  0  0  0  0  0  0  0  0  0  0
  146.4543  132.6810  150.8870 H   0  0  0  0  0  0  0  0  0  0  0  0
  145.4685  132.3727  152.3190 H   0  0  0  0  0  0  0  0  0  0  0  0
  145.2097  130.9417  149.9583 H   0  0  0  0  0  0  0  0  0  0  0  0
  143.8414  131.2125  151.0393 H   0  0  0  0  0  0  0  0  0  0  0  0
  144.1377  132.3281  148.3740 H   0  0  0  0  0  0  0  0  0  0  0  0
  142.8411  132.6301  149.5355 H   0  0  0  0  0  0  0  0  0  0  0  0
  149.1214  139.7814  153.9464 H   0  0  0  0  0  0  0  0  0  0  0  0
  148.6791  141.4636  153.6726 H   0  0  0  0  0  0  0  0  0  0  0  0
  1  2  2  0  0  0  0
  2 27  1  0  0  0  0
  2  3  2  0  0  0  0
  2  4  1  0  0  0  0
  4  5  1  0  0  0  0
  4 30  1  0  0  0  0
  4 31  1  0  0  0  0
  5  6  1  0  0  0  0
  5 32  1  0  0  0  0
  5 33  1  0  0  0  0
  6 28  1  0  0  0  0
  6 27  1  0  0  0  0
  6  7  1  0  0  0  0
  7  8  1  0  0  0  0
  7 34  1  0  0  0  0
  7 35  1  0  0  0  0
  8  9  1  0  0  0  0
  8 26  1  0  0  0  0
  9 14  1  0  0  0  0
  9 10  2  0  0  0  0
 10 11  1  0  0  0  0
 11 12  2  0  0  0  0
 11 36  1  0  0  0  0
 12 13  1  0  0  0  0
 13 17  1  0  0  0  0
 13 14  2  0  0  0  0
 14 15  1  0  0  0  0
 15 16  2  0  0  0  0
 16 17  1  0  0  0  0
 16 37  1  0  0  0  0
 17 18  1  0  0  0  0
 18 19  1  0  0  0  0
 18 38  1  0  0  0  0
 18 39  1  0  0  0  0
 19 20  1  0  0  0  0
 19 21  1  0  0  0  0
 19 40  1  0  0  0  0
 20 41  1  0  0  0  0
 21 25  1  0  0  0  0
 21 22  1  0  0  0  0
 21 42  1  0  0  0  0
 22 23  1  0  0  0  0
 22 43  1  0  0  0  0
 22 44  1  0  0  0  0
 23 24  1  0  0  0  0
 23 45  1  0  0  0  0
 23 46  1  0  0  0  0
 24 25  1  0  0  0  0
 24 47  1  0  0  0  0
 24 48  1  0  0  0  0
 26 27  1  0  0  0  0
 26 49  1  0  0  0  0
 26 50  1  0  0  0  0
 27 29  1  0  0  0  0
M  END
> <s_m_source_file>
AV-unprocessed.smi

> <i_m_source_file_index>
278

> <i_lp_mmshare_version>
43012

> <i_f3d_flags>
0

> <s_epik_input>
W0NIMl0xW0NIMl1TKD1PKSg9TylbQ0BASF0oW0NAQEhdMTIpW0NIMl1OKFtDSDJdMiljKG5bY0hdbjMpYyhjMzQpbltjSF1uNFtDSDJdW0NASF0oW09IXSlbQ0BASF01W0NIMl1bQ0gyXVtDSDJdTzU=

> <s_epik_cmdline>
J2VwaWtfcHl0aG9uJywgJy1waCcsICc3LjAnLCAnLXRuJywgJzgnLCAnLW1hJywgJzIwMCcsICctbWV0YWxfYmluZGluZycsICctaW1hZScsICc8aW5maWxlLm1hZT4nLCAnLW9tYWUnLCAnPG91dGZpbGUubWFlPic=

> <r_lp_tautomer_probability>
1

> <r_epik_Ionization_Penalty>
0.000636766

> <r_epik_Ionization_Penalty_Charging>
0

> <r_epik_Ionization_Penalty_Neutral>
0.000636766

> <r_epik_State_Penalty>
0.000329976

> <r_epik_Charging_Adjusted_Penalty>
0.000329976

> <i_epik_Tot_Q>
0

> <i_epik_Tot_abs_Q>
0

> <r_epik_Metal_State_Penalty>
-0

> <b_epik_Metal_Only>
0

> <s_lp_Force_Field>
OPLS_2005

> <r_lp_Energy>
49.0353

> <b_lp_Chiralities_Consistent>
1

> <s_lp_Variant>
AV-unprocessed.smi:278-6

> <Gold.Version>
5.8.1

> <Gold.Id.Protein>
6NUR|6NUR_protein|mol2

> <Gold.PLP.Fitness>
41.3470

> <Gold.PLP.PLP>
-35.4582

> <Gold.PLP.part.hbond>
-3.0000

> <Gold.PLP.part.metal>
0.0000

> <Gold.PLP.part.buried>
-1.1527

> <Gold.PLP.part.nonpolar>
-33.6229

> <Gold.PLP.part.repulsive>
2.6734

> <Gold.PLP.ligand.clash>
0.0000

> <Gold.PLP.ligand.torsion>
1.0802

> <Gold.PLP.Chemscore.Hbond>
2.2674

> <Gold.PLP.Chemscore.CHOScore>
0.3068

> <Gold.PLP.Chemscore.Metal>
0.0000

> <Gold.Chemscore.Hbonds>
donor molecule, donor type, donor heavy atom, donor atom, acceptor molecule, acceptor atom, score
      L1  H    20    41       P1  7948  1.00
      P1  H  7989  7998       L1     1  0.12
      P1  H  7997  8010       L1     1  1.00
      L1  C    16    37       P1  7948  0.31

> <Gold.PLP.Chemscore.Internal.Correction>
0.3265

> <Gold.Rescore>
     Score         DG    S(hbond)    S(metal)    S(lipo)     H(rot)  DE(clash)    DE(int)     intcor
     11.57     -14.56       1.96        0.00      68.30       2.13       0.77       2.21       ----

> <Gold.Chemscore.Fitness>
11.5740

> <Gold.Chemscore.DG>
-14.5567

> <Gold.Chemscore.ZeroCoef>
-5.4800

> <Gold.Chemscore.Hbond>
1.9612

> <Gold.Chemscore.Metal>
0.0000

> <Gold.Chemscore.Lipo>
68.2982

> <Gold.Chemscore.Internal_Hbond>
0.0000

> <Gold.Chemscore.DEClash>
0.7711

> <Gold.Chemscore.DEInternal>
2.2116

> <Gold.Chemscore.Rot>
2.1346

> <Gold.Chemscore.Internal.Correction>
   9.000000E+99

> <Gold.Chemscore.Hbonds>
donor molecule, donor type, donor heavy atom, donor atom, acceptor molecule, acceptor atom, score
      L1  H    20    41       P1  7948  1.00
      P1  H  7989  7998       L1     1  0.01
      P1  H  7997  8010       L1     1  0.98

> <Gold.Chemscore.Hbond.Weighted>
-6.5504

> <Gold.Chemscore.Metal.Weighted>
-0.0000

> <Gold.Chemscore.Lipo.Weighted>
-7.9909

> <Gold.Chemscore.Internal_Hbond.Weighted>
0.0000

> <Gold.Chemscore.DEClash.Weighted>
0.7711

> <Gold.Chemscore.DEInternal.Weighted>
2.2116

> <Gold.Chemscore.Rot.Weighted>
5.4646

> <Gold.Chemscore.Internal.Correction.Weighted>
   9.000000E+99

> <Gold.Protein.RotatedTorsions>
[ 6907 6896 6895 6894 ] final  -41.34 input  -60.11 | X-H torsion
[ 7974 7965 7964 7962 ] final  -90.07 input  175.53 | X-H torsion
[ 8008 7997 7996 7995 ] final   93.43 input   59.86 | X-H torsion
[ 10167 10162 10161 10158 ] final   -9.66 input  -65.29 | X-H torsion
[ 10718 10713 10712 10709 ] final  120.00 input   66.30 | X-H torsion
[ 10763 10752 10751 10750 ] final  -22.44 input  -60.55 | X-H torsion
[ 11005 11000 10999 10996 ] final -145.18 input  -57.11 | X-H torsion

> <Gold.Protein.ActiveResidues>
 VAL166  LYS551  ARG553  GLY616  TRP617  ASP618  TYR619  PRO620  LYS621  CYS622 
 ASP623  PHE694  ASN695  SER759  ASP760  ASP761  ALA762  ILE779  LEU786  VAL792 
 PHE793  MET794  SER795  GLU796  ALA797  LYS798  CYS799  TRP800  GLU811  SER814 

> <Gold.Protein.RotatedAtoms>
  150.9679  134.9057  159.7769 H   0  0  0  0  0  0  0  0  0  0  0  0  # atno 6907 bound_to 6896
  152.5180  134.3582  159.9285 H   0  0  0  0  0  0  0  0  0  0  0  0  # atno 6908 bound_to 6896
  151.3592  133.3855  159.2722 H   0  0  0  0  0  0  0  0  0  0  0  0  # atno 6909 bound_to 6896
  145.4313  140.9556  143.2126 H   0  0  0  0  0  0  0  0  0  0  0  0  # atno 7974 bound_to 7965
  156.0467  140.3313  155.7304 H   0  0  0  0  0  0  0  0  0  0  0  0  # atno 8008 bound_to 7997
  155.5663  140.0623  157.2834 H   0  0  0  0  0  0  0  0  0  0  0  0  # atno 8009 bound_to 7997
  154.4417  140.1868  156.0822 H   0  0  0  0  0  0  0  0  0  0  0  0  # atno 8010 bound_to 7997
  140.7093  143.5834  150.8968 H   0  0  0  0  0  0  0  0  0  0  0  0  # atno 10167 bound_to 10162
  157.5922  131.1063  150.7974 H   0  0  0  0  0  0  0  0  0  0  0  0  # atno 10718 bound_to 10713
  153.6519  135.6980  153.5206 H   0  0  0  0  0  0  0  0  0  0  0  0  # atno 10763 bound_to 10752
  153.2700  135.4218  155.0977 H   0  0  0  0  0  0  0  0  0  0  0  0  # atno 10764 bound_to 10752
  154.8474  135.3576  154.6064 H   0  0  0  0  0  0  0  0  0  0  0  0  # atno 10765 bound_to 10752
  140.7949  134.2925  157.5000 H   0  0  0  0  0  0  0  0  0  0  0  0  # atno 11005 bound_to 11000
  144.8181  139.5841  143.6999 LP  0  0  0  0  0  0  0  0  0  0  0  0  # atno 17320 bound_to 7965
  146.2605  139.6400  142.9365 LP  0  0  0  0  0  0  0  0  0  0  0  0  # atno 17321 bound_to 7965
  139.9560  143.6218  152.3016 LP  0  0  0  0  0  0  0  0  0  0  0  0  # atno 17342 bound_to 10162
  139.6754  144.7659  151.1706 LP  0  0  0  0  0  0  0  0  0  0  0  0  # atno 17343 bound_to 10162
  156.8393  130.5042  149.5323 LP  0  0  0  0  0  0  0  0  0  0  0  0  # atno 17370 bound_to 10713
  156.0979  130.5946  150.9844 LP  0  0  0  0  0  0  0  0  0  0  0  0  # atno 17371 bound_to 10713
  139.8727  134.9396  156.3746 LP  0  0  0  0  0  0  0  0  0  0  0  0  # atno 17394 bound_to 11000
  140.9353  133.7551  156.0076 LP  0  0  0  0  0  0  0  0  0  0  0  0  # atno 17395 bound_to 11000

$$$$
