AV-unprocessed.smi:2348|AV-procd|sdf|9370|dock3
  -GOLD-   2272012593D 1   1.00000     0.00000
 Structure written by MMmdl.
 28 29  0  0  0  0  0  0  0  0  1 V2000
  147.7298  141.6082  154.6965 C   0  0  0  0  0  0  0  0  0  0  0  0
  149.0740  141.6579  154.2265 O   0  0  0  0  0  0  0  0  0  0  0  0
  150.0722  141.2725  155.0567 C   0  0  0  0  0  0  0  0  0  0  0  0
  150.7455  140.1968  154.6311 N   0  0  0  0  0  0  0  0  0  0  0  0
  151.7263  139.8361  155.4647 C   0  0  0  0  0  0  0  0  0  0  0  0
  152.4631  138.7376  155.0942 N   0  0  0  0  0  0  0  0  0  0  0  0
  152.0739  140.4195  156.6163 N   0  0  0  0  0  0  0  0  0  0  0  0
  151.3110  141.4793  156.9090 C   0  0  0  0  0  0  0  0  0  0  0  0
  151.6192  142.1319  158.0887 N   0  0  0  0  0  0  0  0  0  0  0  0
  152.6356  141.5153  158.9316 C   0  0  0  0  0  0  0  0  0  0  0  0
  152.6398  142.1663  160.3255 C   0  0  0  0  0  0  0  0  0  0  0  0
  152.8258  143.5725  160.1953 O   0  0  0  0  0  0  0  0  0  0  0  0
  151.7809  144.1790  159.4409 C   0  0  0  0  0  0  0  0  0  0  0  0
  151.7552  143.5815  158.0234 C   0  0  0  0  0  0  0  0  0  0  0  0
  150.2943  141.9692  156.1850 N   0  0  0  0  0  0  0  0  0  0  0  0
  147.0597  141.9514  153.9084 H   0  0  0  0  0  0  0  0  0  0  0  0
  147.5840  142.2583  155.5605 H   0  0  0  0  0  0  0  0  0  0  0  0
  147.4360  140.5911  154.9604 H   0  0  0  0  0  0  0  0  0  0  0  0
  152.2550  138.2485  154.2359 H   0  0  0  0  0  0  0  0  0  0  0  0
  153.2252  138.4150  155.6728 H   0  0  0  0  0  0  0  0  0  0  0  0
  152.4440  140.4451  159.0190 H   0  0  0  0  0  0  0  0  0  0  0  0
  153.6132  141.6305  158.4616 H   0  0  0  0  0  0  0  0  0  0  0  0
  151.7079  141.9588  160.8539 H   0  0  0  0  0  0  0  0  0  0  0  0
  153.4478  141.7551  160.9307 H   0  0  0  0  0  0  0  0  0  0  0  0
  150.8228  144.0318  159.9420 H   0  0  0  0  0  0  0  0  0  0  0  0
  151.9541  145.2540  159.3934 H   0  0  0  0  0  0  0  0  0  0  0  0
  152.6741  143.8355  157.4934 H   0  0  0  0  0  0  0  0  0  0  0  0
  150.9269  144.0050  157.4540 H   0  0  0  0  0  0  0  0  0  0  0  0
  1  2  1  0  0  0  0
  1 16  1  0  0  0  0
  1 17  1  0  0  0  0
  1 18  1  0  0  0  0
  2  3  1  0  0  0  0
  3 15  1  0  0  0  0
  3  4  2  0  0  0  0
  4  5  1  0  0  0  0
  5  6  1  0  0  0  0
  5  7  2  0  0  0  0
  6 19  1  0  0  0  0
  6 20  1  0  0  0  0
  7  8  1  0  0  0  0
  8  9  1  0  0  0  0
  8 15  2  0  0  0  0
  9 14  1  0  0  0  0
  9 10  1  0  0  0  0
 10 11  1  0  0  0  0
 10 21  1  0  0  0  0
 10 22  1  0  0  0  0
 11 12  1  0  0  0  0
 11 23  1  0  0  0  0
 11 24  1  0  0  0  0
 12 13  1  0  0  0  0
 13 14  1  0  0  0  0
 13 25  1  0  0  0  0
 13 26  1  0  0  0  0
 14 27  1  0  0  0  0
 14 28  1  0  0  0  0
M  END
> <s_m_source_file>
AV-unprocessed.smi

> <i_m_source_file_index>
2348

> <i_lp_mmshare_version>
43012

> <i_f3d_flags>
0

> <s_epik_input>
W0NIM11PYzFuYyhbTkgyXSluYyhuMSlOMltDSDJdW0NIMl1PW0NIMl1bQ0gyXTI=

> <s_epik_cmdline>
J2VwaWtfcHl0aG9uJywgJy1waCcsICc3LjAnLCAnLXRuJywgJzgnLCAnLW1hJywgJzIwMCcsICctbWV0YWxfYmluZGluZycsICctaW1hZScsICc8aW5maWxlLm1hZT4nLCAnLW9tYWUnLCAnPG91dGZpbGUubWFlPic=

> <r_lp_tautomer_probability>
1

> <r_epik_Ionization_Penalty>
1.97915e-06

> <r_epik_Ionization_Penalty_Charging>
0

> <r_epik_Ionization_Penalty_Neutral>
1.97915e-06

> <r_epik_State_Penalty>
-0

> <r_epik_Charging_Adjusted_Penalty>
0

> <i_epik_Tot_Q>
0

> <i_epik_Tot_abs_Q>
0

> <r_epik_Metal_State_Penalty>
-0

> <b_epik_Metal_Only>
0

> <s_lp_Force_Field>
OPLS_2005

> <r_lp_Energy>
10.0664

> <b_lp_Chiralities_Consistent>
1

> <s_lp_Variant>
AV-unprocessed.smi:2348-1

> <Gold.Version>
5.8.1

> <Gold.Id.Protein>
6NUR|6NUR_protein|mol2

> <Gold.PLP.Fitness>
33.0327

> <Gold.PLP.PLP>
-27.9608

> <Gold.PLP.part.hbond>
-2.8098

> <Gold.PLP.part.metal>
0.0000

> <Gold.PLP.part.buried>
-2.9359

> <Gold.PLP.part.nonpolar>
-21.3841

> <Gold.PLP.part.repulsive>
0.6290

> <Gold.PLP.ligand.clash>
0.0000

> <Gold.PLP.ligand.torsion>
0.1631

> <Gold.PLP.Chemscore.Hbond>
1.7048

> <Gold.PLP.Chemscore.CHOScore>
0.0000

> <Gold.PLP.Chemscore.Metal>
0.0000

> <Gold.Chemscore.Hbonds>
donor molecule, donor type, donor heavy atom, donor atom, acceptor molecule, acceptor atom, score
      P1  H  7989  7998       L1     4  0.90
      P1  H  7997  8008       L1     7  0.34
      P1  H  8011  8017       L1     2  0.38

> <Gold.PLP.Chemscore.Internal.Correction>
0.2839

> <Gold.Rescore>
     Score         DG    S(hbond)    S(metal)    S(lipo)     H(rot)  DE(clash)    DE(int)     intcor
      8.92      -9.26       0.45        0.00      49.81       1.38       0.10       0.24       ----

> <Gold.Chemscore.Fitness>
8.9172

> <Gold.Chemscore.DG>
-9.2600

> <Gold.Chemscore.ZeroCoef>
-5.4800

> <Gold.Chemscore.Hbond>
0.4475

> <Gold.Chemscore.Metal>
0.0000

> <Gold.Chemscore.Lipo>
49.8134

> <Gold.Chemscore.Internal_Hbond>
0.0000

> <Gold.Chemscore.DEClash>
0.0998

> <Gold.Chemscore.DEInternal>
0.2430

> <Gold.Chemscore.Rot>
1.3839

> <Gold.Chemscore.Internal.Correction>
   9.000000E+99

> <Gold.Chemscore.Hbonds>
donor molecule, donor type, donor heavy atom, donor atom, acceptor molecule, acceptor atom, score
      P1  H  7989  7998       L1     4  0.05
      P1  H  7997  8008       L1     7  0.07
      P1  H  8011  8017       L1     2  0.33

> <Gold.Chemscore.Hbond.Weighted>
-1.4945

> <Gold.Chemscore.Metal.Weighted>
-0.0000

> <Gold.Chemscore.Lipo.Weighted>
-5.8282

> <Gold.Chemscore.Internal_Hbond.Weighted>
0.0000

> <Gold.Chemscore.DEClash.Weighted>
0.0998

> <Gold.Chemscore.DEInternal.Weighted>
0.2430

> <Gold.Chemscore.Rot.Weighted>
3.5427

> <Gold.Chemscore.Internal.Correction.Weighted>
   9.000000E+99

> <Gold.Protein.RotatedTorsions>
[ 6907 6896 6895 6894 ] final   96.71 input  -60.11 | X-H torsion
[ 7974 7965 7964 7962 ] final   97.95 input  175.53 | X-H torsion
[ 8008 7997 7996 7995 ] final  -50.97 input   59.86 | X-H torsion
[ 10167 10162 10161 10158 ] final  -81.00 input  -65.29 | X-H torsion
[ 10718 10713 10712 10709 ] final  174.82 input   66.30 | X-H torsion
[ 10763 10752 10751 10750 ] final   87.83 input  -60.55 | X-H torsion
[ 11005 11000 10999 10996 ] final -170.91 input  -57.11 | X-H torsion

> <Gold.Protein.ActiveResidues>
 VAL166  LYS551  ARG553  GLY616  TRP617  ASP618  TYR619  PRO620  LYS621  CYS622 
 ASP623  PHE694  ASN695  SER759  ASP760  ASP761  ALA762  ILE779  LEU786  VAL792 
 PHE793  MET794  SER795  GLU796  ALA797  LYS798  CYS799  TRP800  GLU811  SER814 

> <Gold.Protein.RotatedAtoms>
  152.5432  134.0844  159.8249 H   0  0  0  0  0  0  0  0  0  0  0  0  # atno 6907 bound_to 6896
  151.0941  133.5285  159.2620 H   0  0  0  0  0  0  0  0  0  0  0  0  # atno 6908 bound_to 6896
  151.2065  135.0473  159.8948 H   0  0  0  0  0  0  0  0  0  0  0  0  # atno 6909 bound_to 6896
  145.4187  139.2324  143.3208 H   0  0  0  0  0  0  0  0  0  0  0  0  # atno 7974 bound_to 7965
  154.4073  140.1259  156.4753 H   0  0  0  0  0  0  0  0  0  0  0  0  # atno 8008 bound_to 7997
  155.7138  140.3493  155.4966 H   0  0  0  0  0  0  0  0  0  0  0  0  # atno 8009 bound_to 7997
  155.9276  140.1064  157.1148 H   0  0  0  0  0  0  0  0  0  0  0  0  # atno 8010 bound_to 7997
  140.4452  143.2501  151.8569 H   0  0  0  0  0  0  0  0  0  0  0  0  # atno 10167 bound_to 10162
  156.9440  131.0010  151.2962 H   0  0  0  0  0  0  0  0  0  0  0  0  # atno 10718 bound_to 10713
  153.1707  135.4529  154.9898 H   0  0  0  0  0  0  0  0  0  0  0  0  # atno 10763 bound_to 10752
  154.7964  135.3239  154.7659 H   0  0  0  0  0  0  0  0  0  0  0  0  # atno 10764 bound_to 10752
  153.8136  135.6952  153.4892 H   0  0  0  0  0  0  0  0  0  0  0  0  # atno 10765 bound_to 10752
  140.5141  134.5773  157.5028 H   0  0  0  0  0  0  0  0  0  0  0  0  # atno 11005 bound_to 11000
  146.2668  140.4908  142.8831 LP  0  0  0  0  0  0  0  0  0  0  0  0  # atno 17320 bound_to 7965
  144.8260  140.6629  143.6322 LP  0  0  0  0  0  0  0  0  0  0  0  0  # atno 17321 bound_to 7965
  139.4792  144.5184  151.8836 LP  0  0  0  0  0  0  0  0  0  0  0  0  # atno 17342 bound_to 10162
  140.4272  144.2164  150.5887 LP  0  0  0  0  0  0  0  0  0  0  0  0  # atno 17343 bound_to 10162
  157.5766  130.8347  149.8464 LP  0  0  0  0  0  0  0  0  0  0  0  0  # atno 17370 bound_to 10713
  156.0392  130.3743  150.1480 LP  0  0  0  0  0  0  0  0  0  0  0  0  # atno 17371 bound_to 10713
  139.9642  134.7401  156.0173 LP  0  0  0  0  0  0  0  0  0  0  0  0  # atno 17394 bound_to 11000
  141.1369  133.6573  156.3620 LP  0  0  0  0  0  0  0  0  0  0  0  0  # atno 17395 bound_to 11000

$$$$
