AV-unprocessed.smi:283|AV-procd|sdf|2150|dock6
  -GOLD-   2262021483D 1   1.00000     0.00000
 Structure written by MMmdl.
 48 51  0  0  0  0  0  0  0  0  1 V2000
  152.0194  139.5816  156.5537 C   0  0  0  0  0  0  0  0  0  0  0  0
  150.9474  140.0031  157.5679 C   0  0  1  0  0  0  0  0  0  0  0  0
  150.4453  138.8237  158.2694 N   0  0  0  0  0  0  0  0  0  0  0  0
  149.2871  138.2256  157.9111 C   0  0  0  0  0  0  0  0  0  0  0  0
  148.5021  137.8210  158.9375 N   0  0  0  0  0  0  0  0  0  0  0  0
  147.3269  137.2374  158.6927 C   0  0  0  0  0  0  0  0  0  0  0  0
  146.7603  136.9676  157.5166 N   0  0  0  0  0  0  0  0  0  0  0  0
  147.5487  137.3553  156.4719 C   0  0  0  0  0  0  0  0  0  0  0  0
  148.8230  137.9850  156.5833 C   0  0  0  0  0  0  0  0  0  0  0  0
  149.3304  138.2196  155.3109 N   0  0  0  0  0  0  0  0  0  0  0  0
  148.4063  137.7755  154.5052 C   0  0  0  0  0  0  0  0  0  0  0  0
  147.2978  137.2369  155.1169 N   0  0  0  0  0  0  0  0  0  0  0  0
  146.0929  136.6512  154.4398 C   0  0  2  0  0  0  0  0  0  0  0  0
  146.4925  135.5483  153.6837 O   0  0  0  0  0  0  0  0  0  0  0  0
  145.9092  135.6026  152.3853 C   0  0  2  0  0  0  0  0  0  0  0  0
  146.7528  134.8200  151.3627 C   0  0  0  0  0  0  0  0  0  0  0  0
  146.0110  134.6022  150.1815 O   0  0  0  0  0  0  0  0  0  0  0  0
  145.7548  137.1050  152.1068 C   0  0  2  0  0  0  0  0  0  0  0  0
  146.9478  137.6667  151.5869 O   0  0  0  0  0  0  0  0  0  0  0  0
  145.4017  137.6478  153.4865 C   0  0  2  0  0  0  0  0  0  0  0  0
  145.7417  139.0129  153.6642 O   0  0  0  0  0  0  0  0  0  0  0  0
  151.4833  141.1135  158.4771 C   0  0  0  0  0  0  0  0  0  0  0  0
  151.0512  142.4480  158.2935 C   0  0  0  0  0  0  0  0  0  0  0  0
  151.5401  143.4812  159.1147 C   0  0  0  0  0  0  0  0  0  0  0  0
  152.4606  143.1901  160.1371 C   0  0  0  0  0  0  0  0  0  0  0  0
  152.8854  141.8643  160.3401 C   0  0  0  0  0  0  0  0  0  0  0  0
  152.3991  140.8258  159.5208 C   0  0  0  0  0  0  0  0  0  0  0  0
  152.9452  139.2139  159.8269 Cl  0  0  0  0  0  0  0  0  0  0  0  0
  145.4503  136.3391  155.2641 H   0  0  0  0  0  0  0  0  0  0  0  0
  144.9078  135.1723  152.4498 H   0  0  0  0  0  0  0  0  0  0  0  0
  144.9582  137.2953  151.3868 H   0  0  0  0  0  0  0  0  0  0  0  0
  144.3270  137.5395  153.6388 H   0  0  0  0  0  0  0  0  0  0  0  0
  152.3457  140.4299  155.9510 H   0  0  0  0  0  0  0  0  0  0  0  0
  151.6375  138.8222  155.8708 H   0  0  0  0  0  0  0  0  0  0  0  0
  152.8979  139.1705  157.0525 H   0  0  0  0  0  0  0  0  0  0  0  0
  150.1062  140.3895  156.9948 H   0  0  0  0  0  0  0  0  0  0  0  0
  150.8751  138.6532  159.1669 H   0  0  0  0  0  0  0  0  0  0  0  0
  146.7573  136.9469  159.5629 H   0  0  0  0  0  0  0  0  0  0  0  0
  148.5121  137.8220  153.4313 H   0  0  0  0  0  0  0  0  0  0  0  0
  147.6378  135.3943  151.0872 H   0  0  0  0  0  0  0  0  0  0  0  0
  147.0957  133.8696  151.7731 H   0  0  0  0  0  0  0  0  0  0  0  0
  146.3695  135.1442  149.4956 H   0  0  0  0  0  0  0  0  0  0  0  0
  147.6861  137.2284  151.9808 H   0  0  0  0  0  0  0  0  0  0  0  0
  144.9950  139.5414  153.4281 H   0  0  0  0  0  0  0  0  0  0  0  0
  150.3426  142.6902  157.5152 H   0  0  0  0  0  0  0  0  0  0  0  0
  151.2091  144.4973  158.9589 H   0  0  0  0  0  0  0  0  0  0  0  0
  152.8376  143.9817  160.7677 H   0  0  0  0  0  0  0  0  0  0  0  0
  153.5876  141.6435  161.1304 H   0  0  0  0  0  0  0  0  0  0  0  0
  1  2  1  0  0  0  0
  1 33  1  0  0  0  0
  1 34  1  0  0  0  0
  1 35  1  0  0  0  0
  2  3  1  0  0  0  0
  2 22  1  0  0  0  0
  2 36  1  0  0  0  0
  3  4  1  0  0  0  0
  3 37  1  0  0  0  0
  4  9  1  0  0  0  0
  4  5  2  0  0  0  0
  5  6  1  0  0  0  0
  6  7  2  0  0  0  0
  6 38  1  0  0  0  0
  7  8  1  0  0  0  0
  8 12  1  0  0  0  0
  8  9  2  0  0  0  0
  9 10  1  0  0  0  0
 10 11  2  0  0  0  0
 11 12  1  0  0  0  0
 11 39  1  0  0  0  0
 12 13  1  0  0  0  0
 13 29  1  0  0  0  0
 13 20  1  0  0  0  0
 13 14  1  0  0  0  0
 14 15  1  0  0  0  0
 15 30  1  0  0  0  0
 15 16  1  0  0  0  0
 15 18  1  0  0  0  0
 16 17  1  0  0  0  0
 16 40  1  0  0  0  0
 16 41  1  0  0  0  0
 17 42  1  0  0  0  0
 18 31  1  0  0  0  0
 18 19  1  0  0  0  0
 18 20  1  0  0  0  0
 19 43  1  0  0  0  0
 20 32  1  0  0  0  0
 20 21  1  0  0  0  0
 21 44  1  0  0  0  0
 22 27  1  0  0  0  0
 22 23  2  0  0  0  0
 23 24  1  0  0  0  0
 23 45  1  0  0  0  0
 24 25  2  0  0  0  0
 24 46  1  0  0  0  0
 25 26  1  0  0  0  0
 25 47  1  0  0  0  0
 26 27  2  0  0  0  0
 26 48  1  0  0  0  0
 27 28  1  0  0  0  0
M  END
> <s_m_source_file>
AV-unprocessed.smi

> <i_m_source_file_index>
283

> <i_lp_mmshare_version>
43012

> <i_f3d_flags>
0

> <s_epik_input>
Q2xjMVtjSF1bY0hdW2NIXVtjSF1jMVtDQEhdKFtDSDNdKVtOSF1jKG5bY0hdbjIpYyhjMjMpbltjSF1uM1tDQEBIXTRPW0NASF0oW0NIMl1bT0hdKVtDQEBIXShbT0hdKVtDQEhdNFtPSF0=

> <s_epik_cmdline>
J2VwaWtfcHl0aG9uJywgJy1waCcsICc3LjAnLCAnLXRuJywgJzgnLCAnLW1hJywgJzIwMCcsICctbWV0YWxfYmluZGluZycsICctaW1hZScsICc8aW5maWxlLm1hZT4nLCAnLW9tYWUnLCAnPG91dGZpbGUubWFlPic=

> <r_lp_tautomer_probability>
1

> <r_epik_Ionization_Penalty>
0.000266407

> <r_epik_Ionization_Penalty_Charging>
0

> <r_epik_Ionization_Penalty_Neutral>
0.000266407

> <r_epik_State_Penalty>
-0

> <r_epik_Charging_Adjusted_Penalty>
0

> <i_epik_Tot_Q>
0

> <i_epik_Tot_abs_Q>
0

> <r_epik_Metal_State_Penalty>
-0

> <b_epik_Metal_Only>
0

> <s_epik_Chemistry_Notes>
This compound contains an acetal/aminal-like group ( X-CH(R)-Y where X, Y are N, S, or O) that may be acid/base labile, releasing an aldehyde.

> <s_lp_Force_Field>
OPLS_2005

> <r_lp_Energy>
56.8802

> <b_lp_Chiralities_Consistent>
1

> <s_lp_Variant>
AV-unprocessed.smi:283-26

> <Gold.Version>
5.8.1

> <Gold.Id.Protein>
6NUR|6NUR_protein|mol2

> <Gold.PLP.Fitness>
46.6081

> <Gold.PLP.PLP>
-35.3432

> <Gold.PLP.part.hbond>
-4.5997

> <Gold.PLP.part.metal>
0.0000

> <Gold.PLP.part.buried>
-0.2696

> <Gold.PLP.part.nonpolar>
-31.5955

> <Gold.PLP.part.repulsive>
0.3038

> <Gold.PLP.ligand.clash>
0.0000

> <Gold.PLP.ligand.torsion>
1.0046

> <Gold.PLP.Chemscore.Hbond>
3.3920

> <Gold.PLP.Chemscore.CHOScore>
1.0000

> <Gold.PLP.Chemscore.Metal>
0.0000

> <Gold.Chemscore.Hbonds>
donor molecule, donor type, donor heavy atom, donor atom, acceptor molecule, acceptor atom, score
      L1  H    17    42       P1  7921  0.51
      L1  H    19    43       P1  7948  0.98
      L1  H    21    44       P1 10175  1.00
      P1  H  7954  7966       L1    19  0.21
      L1  C    11    39       P1  7948  1.00

> <Gold.PLP.Chemscore.Internal.Correction>
0.0982

> <Gold.Rescore>
     Score         DG    S(hbond)    S(metal)    S(lipo)     H(rot)  DE(clash)    DE(int)     intcor
     11.46     -15.33       2.73        0.00      95.87       4.10       1.31       2.55       ----

> <Gold.Chemscore.Fitness>
11.4645

> <Gold.Chemscore.DG>
-15.3278

> <Gold.Chemscore.ZeroCoef>
-5.4800

> <Gold.Chemscore.Hbond>
2.7303

> <Gold.Chemscore.Metal>
0.0000

> <Gold.Chemscore.Lipo>
95.8676

> <Gold.Chemscore.Internal_Hbond>
0.0000

> <Gold.Chemscore.DEClash>
1.3141

> <Gold.Chemscore.DEInternal>
2.5491

> <Gold.Chemscore.Rot>
4.0968

> <Gold.Chemscore.Internal.Correction>
   9.000000E+99

> <Gold.Chemscore.Hbonds>
donor molecule, donor type, donor heavy atom, donor atom, acceptor molecule, acceptor atom, score
      L1  H    17    42       P1  7921  0.22
      L1  H    19    43       P1  7948  0.92
      L1  H    21    44       P1 10175  1.00

> <Gold.Chemscore.Hbond.Weighted>
-9.1192

> <Gold.Chemscore.Metal.Weighted>
-0.0000

> <Gold.Chemscore.Lipo.Weighted>
-11.2165

> <Gold.Chemscore.Internal_Hbond.Weighted>
0.0000

> <Gold.Chemscore.DEClash.Weighted>
1.3141

> <Gold.Chemscore.DEInternal.Weighted>
2.5491

> <Gold.Chemscore.Rot.Weighted>
10.4879

> <Gold.Chemscore.Internal.Correction.Weighted>
   9.000000E+99

> <Gold.Protein.RotatedTorsions>
[ 6907 6896 6895 6894 ] final -135.99 input  -60.11 | X-H torsion
[ 7974 7965 7964 7962 ] final   76.94 input  175.53 | X-H torsion
[ 8008 7997 7996 7995 ] final   18.59 input   59.86 | X-H torsion
[ 10167 10162 10161 10158 ] final  158.57 input  -65.29 | X-H torsion
[ 10718 10713 10712 10709 ] final  113.11 input   66.30 | X-H torsion
[ 10763 10752 10751 10750 ] final -111.59 input  -60.55 | X-H torsion
[ 11005 11000 10999 10996 ] final  -78.82 input  -57.11 | X-H torsion

> <Gold.Protein.ActiveResidues>
 VAL166  LYS551  ARG553  GLY616  TRP617  ASP618  TYR619  PRO620  LYS621  CYS622 
 ASP623  PHE694  ASN695  SER759  ASP760  ASP761  ALA762  ILE779  LEU786  VAL792 
 PHE793  MET794  SER795  GLU796  ALA797  LYS798  CYS799  TRP800  GLU811  SER814 

> <Gold.Protein.RotatedAtoms>
  151.0046  133.6023  159.2690 H   0  0  0  0  0  0  0  0  0  0  0  0  # atno 6907 bound_to 6896
  151.3197  135.0814  159.9311 H   0  0  0  0  0  0  0  0  0  0  0  0  # atno 6908 bound_to 6896
  152.5283  133.9696  159.7810 H   0  0  0  0  0  0  0  0  0  0  0  0  # atno 6909 bound_to 6896
  145.6964  139.2568  143.1730 H   0  0  0  0  0  0  0  0  0  0  0  0  # atno 7974 bound_to 7965
  154.9082  140.3010  155.5280 H   0  0  0  0  0  0  0  0  0  0  0  0  # atno 8008 bound_to 7997
  156.3016  140.2394  156.4054 H   0  0  0  0  0  0  0  0  0  0  0  0  # atno 8009 bound_to 7997
  154.8452  140.0412  157.1556 H   0  0  0  0  0  0  0  0  0  0  0  0  # atno 8010 bound_to 7997
  139.4827  144.4812  151.8441 H   0  0  0  0  0  0  0  0  0  0  0  0  # atno 10167 bound_to 10162
  157.6356  131.0978  150.6993 H   0  0  0  0  0  0  0  0  0  0  0  0  # atno 10718 bound_to 10713
  154.8308  135.4522  154.1062 H   0  0  0  0  0  0  0  0  0  0  0  0  # atno 10763 bound_to 10752
  153.2337  135.6908  153.7867 H   0  0  0  0  0  0  0  0  0  0  0  0  # atno 10764 bound_to 10752
  153.7240  135.3337  155.3248 H   0  0  0  0  0  0  0  0  0  0  0  0  # atno 10765 bound_to 10752
  141.1666  133.7079  156.8029 H   0  0  0  0  0  0  0  0  0  0  0  0  # atno 11005 bound_to 11000
  146.0837  140.7735  142.9629 LP  0  0  0  0  0  0  0  0  0  0  0  0  # atno 17320 bound_to 7965
  144.6981  140.3528  143.7178 LP  0  0  0  0  0  0  0  0  0  0  0  0  # atno 17321 bound_to 7965
  140.4288  144.2143  150.5887 LP  0  0  0  0  0  0  0  0  0  0  0  0  # atno 17342 bound_to 10162
  140.4800  143.2382  151.8969 LP  0  0  0  0  0  0  0  0  0  0  0  0  # atno 17343 bound_to 10162
  156.7325  130.4714  149.5496 LP  0  0  0  0  0  0  0  0  0  0  0  0  # atno 17370 bound_to 10713
  156.1592  130.6363  151.0697 LP  0  0  0  0  0  0  0  0  0  0  0  0  # atno 17371 bound_to 10713
  140.2243  134.8733  157.3410 LP  0  0  0  0  0  0  0  0  0  0  0  0  # atno 17394 bound_to 11000
  140.1955  134.4318  155.7691 LP  0  0  0  0  0  0  0  0  0  0  0  0  # atno 17395 bound_to 11000

$$$$
