AV-unprocessed.smi:1313|AV-procd|sdf|5450|dock1
  -GOLD-   22720 5 23D 1   1.00000     0.00000
 Structure written by MMmdl.
 37 38  0  0  0  0  0  0  0  0  1 V2000
  147.0210  142.2005  153.2382 C   0  0  0  0  0  0  0  0  0  0  0  0
  147.8249  141.6503  154.3972 C   0  0  0  0  0  0  0  0  0  0  0  0
  147.5333  141.8568  155.6392 N   0  0  0  0  0  0  0  0  0  0  0  0
  148.3496  141.2883  156.6270 C   0  0  0  0  0  0  0  0  0  0  0  0
  147.9331  141.5685  158.0607 C   0  0  0  0  0  0  0  0  0  0  0  0
  149.4399  140.5310  156.3062 C   0  0  0  0  0  0  0  0  0  0  0  0
  150.3408  139.8865  157.3580 C   0  0  0  0  0  0  0  0  0  0  0  0
  151.5289  140.7407  157.8035 C   0  0  0  0  0  0  0  0  0  0  0  0
  152.6714  140.2888  157.7321 O   0  0  0  0  0  0  0  0  0  0  0  0
  151.2476  141.9673  158.2693 N   0  0  0  0  0  0  0  0  0  0  0  0
  152.2323  142.9194  158.7754 C   0  0  0  0  0  0  0  0  0  0  0  0
  152.0820  143.1047  160.2974 C   0  0  0  0  0  0  0  0  0  0  0  0
  152.1036  144.6141  160.5433 C   0  0  0  0  0  0  0  0  0  0  0  0
  151.5102  145.2116  159.2714 C   0  0  0  0  0  0  0  0  0  0  0  0
  152.0452  144.3177  158.1521 C   0  0  0  0  0  0  0  0  0  0  0  0
  149.7669  140.3071  154.8845 C   0  0  0  0  0  0  0  0  0  0  0  0
  150.7229  139.6448  154.4839 O   0  0  0  0  0  0  0  0  0  0  0  0
  148.9234  140.8885  154.0026 N   0  0  0  0  0  0  0  0  0  0  0  0
  149.1024  140.7609  153.0173 H   0  0  0  0  0  0  0  0  0  0  0  0
  145.9915  141.8459  153.2950 H   0  0  0  0  0  0  0  0  0  0  0  0
  147.4356  141.8922  152.2772 H   0  0  0  0  0  0  0  0  0  0  0  0
  147.0111  143.2901  153.2722 H   0  0  0  0  0  0  0  0  0  0  0  0
  148.7307  142.0765  158.6029 H   0  0  0  0  0  0  0  0  0  0  0  0
  147.6950  140.6402  158.5796 H   0  0  0  0  0  0  0  0  0  0  0  0
  147.0490  142.2060  158.0986 H   0  0  0  0  0  0  0  0  0  0  0  0
  149.7642  139.6192  158.2442 H   0  0  0  0  0  0  0  0  0  0  0  0
  150.7046  138.9334  156.9732 H   0  0  0  0  0  0  0  0  0  0  0  0
  150.2803  142.2564  158.2923 H   0  0  0  0  0  0  0  0  0  0  0  0
  153.2374  142.5552  158.5539 H   0  0  0  0  0  0  0  0  0  0  0  0
  151.1266  142.7049  160.6414 H   0  0  0  0  0  0  0  0  0  0  0  0
  152.8650  142.5897  160.8547 H   0  0  0  0  0  0  0  0  0  0  0  0
  151.5538  144.9017  161.4399 H   0  0  0  0  0  0  0  0  0  0  0  0
  153.1339  144.9524  160.6608 H   0  0  0  0  0  0  0  0  0  0  0  0
  150.4220  145.1451  159.3071 H   0  0  0  0  0  0  0  0  0  0  0  0
  151.7764  146.2601  159.1342 H   0  0  0  0  0  0  0  0  0  0  0  0
  153.0143  144.6949  157.8235 H   0  0  0  0  0  0  0  0  0  0  0  0
  151.3899  144.3225  157.2800 H   0  0  0  0  0  0  0  0  0  0  0  0
  1  2  1  0  0  0  0
  1 20  1  0  0  0  0
  1 21  1  0  0  0  0
  1 22  1  0  0  0  0
  2 18  1  0  0  0  0
  2  3  2  0  0  0  0
  3  4  1  0  0  0  0
  4  5  1  0  0  0  0
  4  6  2  0  0  0  0
  5 23  1  0  0  0  0
  5 24  1  0  0  0  0
  5 25  1  0  0  0  0
  6  7  1  0  0  0  0
  6 16  1  0  0  0  0
  7  8  1  0  0  0  0
  7 26  1  0  0  0  0
  7 27  1  0  0  0  0
  8  9  2  0  0  0  0
  8 10  1  0  0  0  0
 10 11  1  0  0  0  0
 10 28  1  0  0  0  0
 11 15  1  0  0  0  0
 11 12  1  0  0  0  0
 11 29  1  0  0  0  0
 12 13  1  0  0  0  0
 12 30  1  0  0  0  0
 12 31  1  0  0  0  0
 13 14  1  0  0  0  0
 13 32  1  0  0  0  0
 13 33  1  0  0  0  0
 14 15  1  0  0  0  0
 14 34  1  0  0  0  0
 14 35  1  0  0  0  0
 15 36  1  0  0  0  0
 15 37  1  0  0  0  0
 16 17  2  0  0  0  0
 16 18  1  0  0  0  0
 18 19  1  0  0  0  0
M  END
> <s_m_source_file>
AV-unprocessed.smi

> <i_m_source_file_index>
1313

> <i_lp_mmshare_version>
43012

> <i_f3d_flags>
0

> <s_epik_input>
W0NIM11jMW5jKFtDSDNdKWMoYyg9TylbbkhdMSlbQ0gyXUMoPU8pW05IXVtDSF0yW0NIMl1bQ0gyXVtDSDJdW0NIMl0y

> <s_epik_cmdline>
J2VwaWtfcHl0aG9uJywgJy1waCcsICc3LjAnLCAnLXRuJywgJzgnLCAnLW1hJywgJzIwMCcsICctbWV0YWxfYmluZGluZycsICctaW1hZScsICc8aW5maWxlLm1hZT4nLCAnLW9tYWUnLCAnPG91dGZpbGUubWFlPic=

> <r_lp_tautomer_probability>
0.839158

> <r_epik_Ionization_Penalty>
0.000387683

> <r_epik_Ionization_Penalty_Charging>
0.000355009

> <r_epik_Ionization_Penalty_Neutral>
3.26746e-05

> <r_epik_State_Penalty>
0.046959

> <r_epik_Charging_Adjusted_Penalty>
0.047314

> <i_epik_Tot_Q>
0

> <i_epik_Tot_abs_Q>
0

> <r_epik_Metal_State_Penalty>
0.222879

> <b_epik_Metal_Only>
0

> <s_lp_Force_Field>
OPLS_2005

> <r_lp_Energy>
20.1617

> <b_lp_Chiralities_Consistent>
1

> <s_lp_Variant>
AV-unprocessed.smi:1313-1

> <Gold.Version>
5.8.1

> <Gold.Id.Protein>
6NUR|6NUR_protein|mol2

> <Gold.PLP.Fitness>
43.0473

> <Gold.PLP.PLP>
-35.2011

> <Gold.PLP.part.hbond>
-3.0000

> <Gold.PLP.part.metal>
0.0000

> <Gold.PLP.part.buried>
-6.0672

> <Gold.PLP.part.nonpolar>
-26.5178

> <Gold.PLP.part.repulsive>
0.9533

> <Gold.PLP.ligand.clash>
0.0000

> <Gold.PLP.ligand.torsion>
0.4979

> <Gold.PLP.Chemscore.Hbond>
2.9440

> <Gold.PLP.Chemscore.CHOScore>
0.0000

> <Gold.PLP.Chemscore.Metal>
0.0000

> <Gold.Chemscore.Hbonds>
donor molecule, donor type, donor heavy atom, donor atom, acceptor molecule, acceptor atom, score
      L1  H    18    19       P1  7957  0.94
      P1  H  7989  7998       L1    17  1.00
      P1  H  7997  8010       L1     9  0.94

> <Gold.PLP.Chemscore.Internal.Correction>
0.0100

> <Gold.Rescore>
     Score         DG    S(hbond)    S(metal)    S(lipo)     H(rot)  DE(clash)    DE(int)     intcor
     17.29     -19.30       2.53        0.00      78.97       1.51       1.63       0.37       ----

> <Gold.Chemscore.Fitness>
17.2929

> <Gold.Chemscore.DG>
-19.2966

> <Gold.Chemscore.ZeroCoef>
-5.4800

> <Gold.Chemscore.Hbond>
2.5300

> <Gold.Chemscore.Metal>
0.0000

> <Gold.Chemscore.Lipo>
78.9677

> <Gold.Chemscore.Internal_Hbond>
0.0000

> <Gold.Chemscore.DEClash>
1.6328

> <Gold.Chemscore.DEInternal>
0.3709

> <Gold.Chemscore.Rot>
1.5128

> <Gold.Chemscore.Internal.Correction>
   9.000000E+99

> <Gold.Chemscore.Hbonds>
donor molecule, donor type, donor heavy atom, donor atom, acceptor molecule, acceptor atom, score
      L1  H    18    19       P1  7957  0.90
      P1  H  7989  7998       L1    17  0.35
      P1  H  7997  8010       L1     9  0.88

> <Gold.Chemscore.Hbond.Weighted>
-8.4500

> <Gold.Chemscore.Metal.Weighted>
-0.0000

> <Gold.Chemscore.Lipo.Weighted>
-9.2392

> <Gold.Chemscore.Internal_Hbond.Weighted>
0.0000

> <Gold.Chemscore.DEClash.Weighted>
1.6328

> <Gold.Chemscore.DEInternal.Weighted>
0.3709

> <Gold.Chemscore.Rot.Weighted>
3.8727

> <Gold.Chemscore.Internal.Correction.Weighted>
   9.000000E+99

> <Gold.Protein.RotatedTorsions>
[ 6907 6896 6895 6894 ] final  125.04 input  -60.11 | X-H torsion
[ 7974 7965 7964 7962 ] final  -47.28 input  175.53 | X-H torsion
[ 8008 7997 7996 7995 ] final   53.11 input   59.86 | X-H torsion
[ 10167 10162 10161 10158 ] final   71.17 input  -65.29 | X-H torsion
[ 10718 10713 10712 10709 ] final -172.23 input   66.30 | X-H torsion
[ 10763 10752 10751 10750 ] final  107.02 input  -60.55 | X-H torsion
[ 11005 11000 10999 10996 ] final   40.48 input  -57.11 | X-H torsion

> <Gold.Protein.ActiveResidues>
 VAL166  LYS551  ARG553  GLY616  TRP617  ASP618  TYR619  PRO620  LYS621  CYS622 
 ASP623  PHE694  ASN695  SER759  ASP760  ASP761  ALA762  ILE779  LEU786  VAL792 
 PHE793  MET794  SER795  GLU796  ALA797  LYS798  CYS799  TRP800  GLU811  SER814 

> <Gold.Protein.RotatedAtoms>
  152.4026  133.6841  159.6329 H   0  0  0  0  0  0  0  0  0  0  0  0  # atno 6907 bound_to 6896
  150.7915  133.8764  159.3282 H   0  0  0  0  0  0  0  0  0  0  0  0  # atno 6908 bound_to 6896
  151.6526  135.1001  160.0215 H   0  0  0  0  0  0  0  0  0  0  0  0  # atno 6909 bound_to 6896
  145.9632  140.7458  142.9447 H   0  0  0  0  0  0  0  0  0  0  0  0  # atno 7974 bound_to 7965
  155.4629  140.3462  155.4315 H   0  0  0  0  0  0  0  0  0  0  0  0  # atno 8008 bound_to 7997
  156.1149  140.1471  156.9316 H   0  0  0  0  0  0  0  0  0  0  0  0  # atno 8009 bound_to 7997
  154.4782  140.0878  156.7293 H   0  0  0  0  0  0  0  0  0  0  0  0  # atno 8010 bound_to 7997
  140.0490  144.5327  150.7377 H   0  0  0  0  0  0  0  0  0  0  0  0  # atno 10167 bound_to 10162
  156.7524  130.9383  151.3115 H   0  0  0  0  0  0  0  0  0  0  0  0  # atno 10718 bound_to 10713
  153.4010  135.3858  155.1987 H   0  0  0  0  0  0  0  0  0  0  0  0  # atno 10763 bound_to 10752
  154.8729  135.3771  154.4618 H   0  0  0  0  0  0  0  0  0  0  0  0  # atno 10764 bound_to 10752
  153.5116  135.7087  153.5840 H   0  0  0  0  0  0  0  0  0  0  0  0  # atno 10765 bound_to 10752
  140.1926  134.3968  155.8138 H   0  0  0  0  0  0  0  0  0  0  0  0  # atno 11005 bound_to 11000
  144.6819  140.2625  143.7317 LP  0  0  0  0  0  0  0  0  0  0  0  0  # atno 17320 bound_to 7965
  145.8011  139.1964  143.2048 LP  0  0  0  0  0  0  0  0  0  0  0  0  # atno 17321 bound_to 7965
  140.7225  143.2603  151.4230 LP  0  0  0  0  0  0  0  0  0  0  0  0  # atno 17342 bound_to 10162
  139.5965  144.1387  152.2149 LP  0  0  0  0  0  0  0  0  0  0  0  0  # atno 17343 bound_to 10162
  157.6771  130.9104  150.0176 LP  0  0  0  0  0  0  0  0  0  0  0  0  # atno 17370 bound_to 10713
  156.1392  130.3642  149.9609 LP  0  0  0  0  0  0  0  0  0  0  0  0  # atno 17371 bound_to 10713
  141.2226  133.7054  156.8121 LP  0  0  0  0  0  0  0  0  0  0  0  0  # atno 17394 bound_to 11000
  140.2143  134.8804  157.3308 LP  0  0  0  0  0  0  0  0  0  0  0  0  # atno 17395 bound_to 11000

$$$$
