AV-unprocessed.smi:109|AV-procd|sdf|1044|dock8
  -GOLD-   2262018 83D 1   1.00000     0.00000
 Structure written by MMmdl.
 58 61  0  0  0  0  0  0  0  0  1 V2000
  145.3225  142.2156  154.1260 O   0  0  0  0  0  0  0  0  0  0  0  0
  145.9171  141.8758  155.3601 C   0  0  0  0  0  0  0  0  0  0  0  0
  147.4046  141.5418  155.1510 C   0  0  0  0  0  0  0  0  0  0  0  0
  147.6735  140.0655  154.7686 C   0  0  1  0  0  0  0  0  0  0  0  0
  147.5361  139.9073  153.3183 N   0  0  0  0  0  0  0  0  0  0  0  0
  146.9250  138.8327  152.7711 C   0  0  0  0  0  0  0  0  0  0  0  0
  146.8003  138.6963  151.4255 N   0  0  0  0  0  0  0  0  0  0  0  0
  146.1946  137.6203  150.9148 C   0  0  0  0  0  0  0  0  0  0  0  0
  145.6569  136.5815  151.5583 N   0  0  0  0  0  0  0  0  0  0  0  0
  145.7821  136.7125  152.9109 C   0  0  0  0  0  0  0  0  0  0  0  0
  146.3929  137.8029  153.5894 C   0  0  0  0  0  0  0  0  0  0  0  0
  146.3298  137.5967  154.9603 N   0  0  0  0  0  0  0  0  0  0  0  0
  145.7141  136.4511  155.0791 C   0  0  0  0  0  0  0  0  0  0  0  0
  145.3616  135.8396  153.8917 N   0  0  0  0  0  0  0  0  0  0  0  0
  144.6316  134.5493  153.6459 C   0  0  2  0  0  0  0  0  0  0  0  0
  145.5168  133.6645  153.0384 O   0  0  0  0  0  0  0  0  0  0  0  0
  145.4609  133.8387  151.6301 C   0  0  1  0  0  0  0  0  0  0  0  0
  146.0010  132.5762  150.9409 C   0  0  0  0  0  0  0  0  0  0  0  0
  147.2731  132.2414  151.4529 O   0  0  0  0  0  0  0  0  0  0  0  0
  143.9758  134.1368  151.3602 C   0  0  2  0  0  0  0  0  0  0  0  0
  143.8502  135.0733  150.3080 O   0  0  0  0  0  0  0  0  0  0  0  0
  143.4535  134.7303  152.6740 C   0  0  1  0  0  0  0  0  0  0  0  0
  142.3143  134.0247  153.1228 O   0  0  0  0  0  0  0  0  0  0  0  0
  149.0692  139.5447  155.2166 C   0  0  0  0  0  0  0  0  0  0  0  0
  150.1259  140.6778  155.1582 C   0  0  0  0  0  0  0  0  0  0  0  0
  151.5245  140.2051  155.5852 C   0  0  0  0  0  0  0  0  0  0  0  0
  151.9924  139.0199  154.7324 C   0  0  0  0  0  0  0  0  0  0  0  0
  150.9752  137.8749  154.7993 C   0  0  0  0  0  0  0  0  0  0  0  0
  149.5718  138.3422  154.3784 C   0  0  0  0  0  0  0  0  0  0  0  0
  144.3347  134.2058  154.6375 H   0  0  0  0  0  0  0  0  0  0  0  0
  146.0862  134.6964  151.3763 H   0  0  0  0  0  0  0  0  0  0  0  0
  143.4388  133.2222  151.1034 H   0  0  0  0  0  0  0  0  0  0  0  0
  143.1818  135.7839  152.5941 H   0  0  0  0  0  0  0  0  0  0  0  0
  144.7395  141.5170  153.8704 H   0  0  0  0  0  0  0  0  0  0  0  0
  145.8041  142.7125  156.0502 H   0  0  0  0  0  0  0  0  0  0  0  0
  145.3756  141.0287  155.7808 H   0  0  0  0  0  0  0  0  0  0  0  0
  147.8280  142.2022  154.3929 H   0  0  0  0  0  0  0  0  0  0  0  0
  147.9121  141.7789  156.0847 H   0  0  0  0  0  0  0  0  0  0  0  0
  146.9371  139.4596  155.2955 H   0  0  0  0  0  0  0  0  0  0  0  0
  147.7700  140.7259  152.7750 H   0  0  0  0  0  0  0  0  0  0  0  0
  146.1335  137.5860  149.8370 H   0  0  0  0  0  0  0  0  0  0  0  0
  145.5051  136.0251  156.0486 H   0  0  0  0  0  0  0  0  0  0  0  0
  145.3297  131.7361  151.1215 H   0  0  0  0  0  0  0  0  0  0  0  0
  146.0622  132.7137  149.8610 H   0  0  0  0  0  0  0  0  0  0  0  0
  147.7616  131.7956  150.7776 H   0  0  0  0  0  0  0  0  0  0  0  0
  142.9622  135.0518  149.9870 H   0  0  0  0  0  0  0  0  0  0  0  0
  142.5795  133.4323  153.8098 H   0  0  0  0  0  0  0  0  0  0  0  0
  148.9892  139.2119  156.2529 H   0  0  0  0  0  0  0  0  0  0  0  0
  150.1754  141.0786  154.1448 H   0  0  0  0  0  0  0  0  0  0  0  0
  149.8349  141.5105  155.7988 H   0  0  0  0  0  0  0  0  0  0  0  0
  152.2358  141.0270  155.4989 H   0  0  0  0  0  0  0  0  0  0  0  0
  151.5094  139.9181  156.6373 H   0  0  0  0  0  0  0  0  0  0  0  0
  152.1204  139.3380  153.6970 H   0  0  0  0  0  0  0  0  0  0  0  0
  152.9679  138.6737  155.0751 H   0  0  0  0  0  0  0  0  0  0  0  0
  151.2990  137.0538  154.1593 H   0  0  0  0  0  0  0  0  0  0  0  0
  150.9387  137.4783  155.8148 H   0  0  0  0  0  0  0  0  0  0  0  0
  148.9022  137.4901  154.4835 H   0  0  0  0  0  0  0  0  0  0  0  0
  149.5771  138.6071  153.3202 H   0  0  0  0  0  0  0  0  0  0  0  0
  1  2  1  0  0  0  0
  1 34  1  0  0  0  0
  2  3  1  0  0  0  0
  2 35  1  0  0  0  0
  2 36  1  0  0  0  0
  3  4  1  0  0  0  0
  3 37  1  0  0  0  0
  3 38  1  0  0  0  0
  4  5  1  0  0  0  0
  4 24  1  0  0  0  0
  4 39  1  0  0  0  0
  5  6  1  0  0  0  0
  5 40  1  0  0  0  0
  6 11  1  0  0  0  0
  6  7  2  0  0  0  0
  7  8  1  0  0  0  0
  8  9  2  0  0  0  0
  8 41  1  0  0  0  0
  9 10  1  0  0  0  0
 10 14  1  0  0  0  0
 10 11  2  0  0  0  0
 11 12  1  0  0  0  0
 12 13  2  0  0  0  0
 13 14  1  0  0  0  0
 13 42  1  0  0  0  0
 14 15  1  0  0  0  0
 15 30  1  0  0  0  0
 15 22  1  0  0  0  0
 15 16  1  0  0  0  0
 16 17  1  0  0  0  0
 17 31  1  0  0  0  0
 17 18  1  0  0  0  0
 17 20  1  0  0  0  0
 18 19  1  0  0  0  0
 18 43  1  0  0  0  0
 18 44  1  0  0  0  0
 19 45  1  0  0  0  0
 20 32  1  0  0  0  0
 20 21  1  0  0  0  0
 20 22  1  0  0  0  0
 21 46  1  0  0  0  0
 22 33  1  0  0  0  0
 22 23  1  0  0  0  0
 23 47  1  0  0  0  0
 24 29  1  0  0  0  0
 24 25  1  0  0  0  0
 24 48  1  0  0  0  0
 25 26  1  0  0  0  0
 25 49  1  0  0  0  0
 25 50  1  0  0  0  0
 26 27  1  0  0  0  0
 26 51  1  0  0  0  0
 26 52  1  0  0  0  0
 27 28  1  0  0  0  0
 27 53  1  0  0  0  0
 27 54  1  0  0  0  0
 28 29  1  0  0  0  0
 28 55  1  0  0  0  0
 28 56  1  0  0  0  0
 29 57  1  0  0  0  0
 29 58  1  0  0  0  0
M  END
> <s_m_source_file>
AV-unprocessed.smi

> <i_m_source_file_index>
109

> <i_lp_mmshare_version>
43012

> <i_f3d_flags>
0

> <s_epik_input>
W0NIMl0xW0NIMl1bQ0gyXVtDSDJdW0NIMl1bQ0hdMVtDQEhdKFtDSDJdW0NIMl1bT0hdKVtOSF1jKG5bY0hdbjIpYyhjMjMpbltjSF1uM1tDQEBIXTRPW0NASF0oW0NIMl1bT0hdKVtDQEBIXShbT0hdKVtDQEhdNFtPSF0=

> <s_epik_cmdline>
J2VwaWtfcHl0aG9uJywgJy1waCcsICc3LjAnLCAnLXRuJywgJzgnLCAnLW1hJywgJzIwMCcsICctbWV0YWxfYmluZGluZycsICctaW1hZScsICc8aW5maWxlLm1hZT4nLCAnLW9tYWUnLCAnPG91dGZpbGUubWFlPic=

> <r_lp_tautomer_probability>
1

> <r_epik_Ionization_Penalty>
0.000793976

> <r_epik_Ionization_Penalty_Charging>
0

> <r_epik_Ionization_Penalty_Neutral>
0.000793976

> <r_epik_State_Penalty>
-0

> <r_epik_Charging_Adjusted_Penalty>
0

> <i_epik_Tot_Q>
0

> <i_epik_Tot_abs_Q>
0

> <r_epik_Metal_State_Penalty>
-0

> <b_epik_Metal_Only>
0

> <s_epik_Chemistry_Notes>
This compound contains an acetal/aminal-like group ( X-CH(R)-Y where X, Y are N, S, or O) that may be acid/base labile, releasing an aldehyde.

> <s_lp_Force_Field>
OPLS_2005

> <r_lp_Energy>
47.5037

> <b_lp_Chiralities_Consistent>
1

> <s_lp_Variant>
AV-unprocessed.smi:109-14

> <Gold.Version>
5.8.1

> <Gold.Id.Protein>
6NUR|6NUR_protein|mol2

> <Gold.PLP.Fitness>
48.1650

> <Gold.PLP.PLP>
-38.5566

> <Gold.PLP.part.hbond>
-5.3684

> <Gold.PLP.part.metal>
0.0000

> <Gold.PLP.part.buried>
-2.6372

> <Gold.PLP.part.nonpolar>
-33.0687

> <Gold.PLP.part.repulsive>
0.9614

> <Gold.PLP.ligand.clash>
0.0000

> <Gold.PLP.ligand.torsion>
1.5790

> <Gold.PLP.Chemscore.Hbond>
3.9263

> <Gold.PLP.Chemscore.CHOScore>
0.2956

> <Gold.PLP.Chemscore.Metal>
0.0000

> <Gold.Chemscore.Hbonds>
donor molecule, donor type, donor heavy atom, donor atom, acceptor molecule, acceptor atom, score
      L1  H     1    34       P1 10175  0.90
      L1  H    19    45       P1 10747  1.00
      L1  H    21    46       P1 10186  0.88
      L1  H    23    47       P1 10957  1.00
      L1  C     8    41       P1 10171  0.28

> <Gold.PLP.Chemscore.Internal.Correction>
0.1007

> <Gold.Rescore>
     Score         DG    S(hbond)    S(metal)    S(lipo)     H(rot)  DE(clash)    DE(int)     intcor
      2.31      -8.96       2.76        0.00      70.56       5.47       1.45       5.20       ----

> <Gold.Chemscore.Fitness>
2.3100

> <Gold.Chemscore.DG>
-8.9585

> <Gold.Chemscore.ZeroCoef>
-5.4800

> <Gold.Chemscore.Hbond>
2.7595

> <Gold.Chemscore.Metal>
0.0000

> <Gold.Chemscore.Lipo>
70.5590

> <Gold.Chemscore.Internal_Hbond>
0.0000

> <Gold.Chemscore.DEClash>
1.4487

> <Gold.Chemscore.DEInternal>
5.1997

> <Gold.Chemscore.Rot>
5.4662

> <Gold.Chemscore.Internal.Correction>
   9.000000E+99

> <Gold.Chemscore.Hbonds>
donor molecule, donor type, donor heavy atom, donor atom, acceptor molecule, acceptor atom, score
      L1  H     1    34       P1 10175  0.16
      L1  H    19    45       P1 10747  0.96
      L1  H    21    46       P1 10186  0.26
      L1  H    23    47       P1 10957  0.98

> <Gold.Chemscore.Hbond.Weighted>
-9.2166

> <Gold.Chemscore.Metal.Weighted>
-0.0000

> <Gold.Chemscore.Lipo.Weighted>
-8.2554

> <Gold.Chemscore.Internal_Hbond.Weighted>
0.0000

> <Gold.Chemscore.DEClash.Weighted>
1.4487

> <Gold.Chemscore.DEInternal.Weighted>
5.1997

> <Gold.Chemscore.Rot.Weighted>
13.9935

> <Gold.Chemscore.Internal.Correction.Weighted>
   9.000000E+99

> <Gold.Protein.RotatedTorsions>
[ 6907 6896 6895 6894 ] final  -23.56 input  -60.11 | X-H torsion
[ 7974 7965 7964 7962 ] final  -23.49 input  175.53 | X-H torsion
[ 8008 7997 7996 7995 ] final -133.16 input   59.86 | X-H torsion
[ 10167 10162 10161 10158 ] final  131.80 input  -65.29 | X-H torsion
[ 10718 10713 10712 10709 ] final   11.73 input   66.30 | X-H torsion
[ 10763 10752 10751 10750 ] final   -1.02 input  -60.55 | X-H torsion
[ 11005 11000 10999 10996 ] final  -97.02 input  -57.11 | X-H torsion

> <Gold.Protein.ActiveResidues>
 VAL166  LYS551  ARG553  GLY616  TRP617  ASP618  TYR619  PRO620  LYS621  CYS622 
 ASP623  PHE694  ASN695  SER759  ASP760  ASP761  ALA762  ILE779  LEU786  VAL792 
 PHE793  MET794  SER795  GLU796  ALA797  LYS798  CYS799  TRP800  GLU811  SER814 

> <Gold.Protein.RotatedAtoms>
  151.2023  135.0447  159.8876 H   0  0  0  0  0  0  0  0  0  0  0  0  # atno 6907 bound_to 6896
  152.5431  134.0837  159.8257 H   0  0  0  0  0  0  0  0  0  0  0  0  # atno 6908 bound_to 6896
  151.0979  133.5218  159.2643 H   0  0  0  0  0  0  0  0  0  0  0  0  # atno 6909 bound_to 6896
  146.1613  140.4623  142.8570 H   0  0  0  0  0  0  0  0  0  0  0  0  # atno 7974 bound_to 7965
  155.3409  140.0472  157.3045 H   0  0  0  0  0  0  0  0  0  0  0  0  # atno 8008 bound_to 7997
  154.5278  140.2247  155.8824 H   0  0  0  0  0  0  0  0  0  0  0  0  # atno 8009 bound_to 7997
  156.1757  140.3085  155.9061 H   0  0  0  0  0  0  0  0  0  0  0  0  # atno 8010 bound_to 7997
  139.5367  144.6690  151.4760 H   0  0  0  0  0  0  0  0  0  0  0  0  # atno 10167 bound_to 10162
  156.9999  130.6075  149.5695 H   0  0  0  0  0  0  0  0  0  0  0  0  # atno 10718 bound_to 10713
  153.3394  135.6980  153.6879 H   0  0  0  0  0  0  0  0  0  0  0  0  # atno 10763 bound_to 10752
  153.5650  135.3527  155.2815 H   0  0  0  0  0  0  0  0  0  0  0  0  # atno 10764 bound_to 10752
  154.8634  135.4258  154.2603 H   0  0  0  0  0  0  0  0  0  0  0  0  # atno 10765 bound_to 10752
  141.1393  133.8140  157.0650 H   0  0  0  0  0  0  0  0  0  0  0  0  # atno 11005 bound_to 11000
  144.8031  140.6249  143.6465 LP  0  0  0  0  0  0  0  0  0  0  0  0  # atno 17320 bound_to 7965
  145.4581  139.1516  143.3881 LP  0  0  0  0  0  0  0  0  0  0  0  0  # atno 17321 bound_to 7965
  140.6578  143.8563  150.6854 LP  0  0  0  0  0  0  0  0  0  0  0  0  # atno 17342 bound_to 10162
  140.1948  143.4007  152.1836 LP  0  0  0  0  0  0  0  0  0  0  0  0  # atno 17343 bound_to 10162
  156.0175  130.5269  150.8178 LP  0  0  0  0  0  0  0  0  0  0  0  0  # atno 17370 bound_to 10713
  157.5398  131.0940  150.9843 LP  0  0  0  0  0  0  0  0  0  0  0  0  # atno 17371 bound_to 10713
  140.0547  134.9787  157.1200 LP  0  0  0  0  0  0  0  0  0  0  0  0  # atno 17394 bound_to 11000
  140.3937  134.2157  155.7165 LP  0  0  0  0  0  0  0  0  0  0  0  0  # atno 17395 bound_to 11000

$$$$
