AV-unprocessed.smi:3187|AV-procd|sdf|12181|dock5
  -GOLD-   2272018 23D 1   1.00000     0.00000
 Structure written by MMmdl.
 42 43  0  0  0  0  0  0  0  0  3 V2000
  153.8293  140.5022  159.9600 C   0  0  0  0  0  0  0  0  0  0  0  0
  153.0963  141.8064  160.2275 C   0  0  0  0  0  0  0  0  0  0  0  0
  153.1104  142.3391  161.4645 C   0  0  0  0  0  0  0  0  0  0  0  0
  152.4821  143.6640  161.8294 C   0  0  0  0  0  0  0  0  0  0  0  0
  152.2867  144.5390  160.5891 C   0  0  0  0  0  0  0  0  0  0  0  0
  151.5889  143.7637  159.4596 C   0  0  1  0  0  0  0  0  0  0  0  0
  151.3309  144.7117  158.2724 C   0  0  0  0  0  0  0  0  0  0  0  0
  152.3776  142.4837  159.0421 C   0  0  2  0  0  0  0  0  0  0  0  0
  151.4455  141.5120  158.2705 C   0  0  0  0  0  0  0  0  0  0  0  0
  151.3292  141.8406  156.8343 N   0  3  0  0  0  0  0  0  0  0  0  0
  150.9467  140.6959  155.9843 C   0  0  0  0  0  0  0  0  0  0  0  0
  152.1482  139.7783  155.7176 C   0  0  0  0  0  0  0  0  0  0  0  0
  151.7297  138.4590  155.2371 N   0  0  0  0  0  0  0  0  0  0  0  0
  151.9881  137.2429  155.8163 C   0  0  0  0  0  0  0  0  0  0  0  0
  151.4031  136.2962  155.0151 C   0  0  0  0  0  0  0  0  0  0  0  0
  150.8125  136.9734  153.9822 N   0  3  0  0  0  0  0  0  0  0  0  0
  151.0122  138.2884  154.1187 C   0  0  0  0  0  0  0  0  0  0  0  0
  154.4934  140.6060  159.1017 H   0  0  0  0  0  0  0  0  0  0  0  0
  153.1268  139.6909  159.7713 H   0  0  0  0  0  0  0  0  0  0  0  0
  154.4398  140.2088  160.8147 H   0  0  0  0  0  0  0  0  0  0  0  0
  153.6073  141.8186  162.2705 H   0  0  0  0  0  0  0  0  0  0  0  0
  151.5300  143.4749  162.3261 H   0  0  0  0  0  0  0  0  0  0  0  0
  153.1220  144.1792  162.5463 H   0  0  0  0  0  0  0  0  0  0  0  0
  151.7094  145.4239  160.8596 H   0  0  0  0  0  0  0  0  0  0  0  0
  153.2560  144.8988  160.2405 H   0  0  0  0  0  0  0  0  0  0  0  0
  150.6185  143.4502  159.8486 H   0  0  0  0  0  0  0  0  0  0  0  0
  152.2669  145.0535  157.8292 H   0  0  0  0  0  0  0  0  0  0  0  0
  150.7795  145.5961  158.5936 H   0  0  0  0  0  0  0  0  0  0  0  0
  150.7432  144.2441  157.4840 H   0  0  0  0  0  0  0  0  0  0  0  0
  153.1729  142.8030  158.3667 H   0  0  0  0  0  0  0  0  0  0  0  0
  151.8057  140.4884  158.3850 H   0  0  0  0  0  0  0  0  0  0  0  0
  150.4370  141.5273  158.6801 H   0  0  0  0  0  0  0  0  0  0  0  0
  150.6396  142.5711  156.7282 H   0  0  0  0  0  0  0  0  0  0  0  0
  150.1512  140.1350  156.4774 H   0  0  0  0  0  0  0  0  0  0  0  0
  150.5436  141.0682  155.0413 H   0  0  0  0  0  0  0  0  0  0  0  0
  152.8068  140.2131  154.9642 H   0  0  0  0  0  0  0  0  0  0  0  0
  152.7415  139.6412  156.6231 H   0  0  0  0  0  0  0  0  0  0  0  0
  152.5537  137.1419  156.7314 H   0  0  0  0  0  0  0  0  0  0  0  0
  151.3634  135.2196  155.1006 H   0  0  0  0  0  0  0  0  0  0  0  0
  150.6609  139.0583  153.4548 H   0  0  0  0  0  0  0  0  0  0  0  0
  152.2220  142.1920  156.5181 H   0  0  0  0  0  0  0  0  0  0  0  0
  150.2967  136.5433  153.2243 H   0  0  0  0  0  0  0  0  0  0  0  0
  1  2  1  0  0  0  0
  1 18  1  0  0  0  0
  1 19  1  0  0  0  0
  1 20  1  0  0  0  0
  2  8  1  0  0  0  0
  2  3  2  0  0  0  0
  3  4  1  0  0  0  0
  3 21  1  0  0  0  0
  4  5  1  0  0  0  0
  4 22  1  0  0  0  0
  4 23  1  0  0  0  0
  5  6  1  0  0  0  0
  5 24  1  0  0  0  0
  5 25  1  0  0  0  0
  6  7  1  0  0  0  0
  6  8  1  0  0  0  0
  6 26  1  0  0  0  0
  7 27  1  0  0  0  0
  7 28  1  0  0  0  0
  7 29  1  0  0  0  0
  8  9  1  0  0  0  0
  8 30  1  0  0  0  0
  9 10  1  0  0  0  0
  9 31  1  0  0  0  0
  9 32  1  0  0  0  0
 10 11  1  0  0  0  0
 10 33  1  0  0  0  0
 10 41  1  0  0  0  0
 11 12  1  0  0  0  0
 11 34  1  0  0  0  0
 11 35  1  0  0  0  0
 12 13  1  0  0  0  0
 12 36  1  0  0  0  0
 12 37  1  0  0  0  0
 13 17  1  0  0  0  0
 13 14  1  0  0  0  0
 14 15  2  0  0  0  0
 14 38  1  0  0  0  0
 15 16  1  0  0  0  0
 15 39  1  0  0  0  0
 16 17  2  0  0  0  0
 16 42  1  0  0  0  0
 17 40  1  0  0  0  0
M  CHG  1  10   1
M  CHG  1  16   1
M  END
> <s_m_source_file>
AV-unprocessed.smi

> <i_m_source_file_index>
3187

> <i_lp_mmshare_version>
43012

> <i_f3d_flags>
0

> <s_epik_input>
W0NIM11DMT1bQ0hdW0NIMl1bQ0gyXVtDQEBIXShbQ0gzXSlbQ0BIXTFbQ0gyXVtOSF1bQ0gyXVtDSDJdbjJbY0hdW2NIXW5bY0hdMg==

> <s_epik_cmdline>
J2VwaWtfcHl0aG9uJywgJy1waCcsICc3LjAnLCAnLXRuJywgJzgnLCAnLW1hJywgJzIwMCcsICctbWV0YWxfYmluZGluZycsICctaW1hZScsICc8aW5maWxlLm1hZT4nLCAnLW9tYWUnLCAnPG91dGZpbGUubWFlPic=

> <r_lp_tautomer_probability>
1

> <r_epik_Ionization_Penalty>
1.51066

> <r_epik_Ionization_Penalty_Charging>
0.0026721

> <r_epik_Ionization_Penalty_Neutral>
1.50798

> <r_epik_State_Penalty>
1.12593

> <r_epik_Charging_Adjusted_Penalty>
1.12861

> <i_epik_Tot_Q>
2

> <i_epik_Tot_abs_Q>
2

> <r_epik_Metal_State_Penalty>
5.12155

> <b_epik_Metal_Only>
0

> <s_lp_Force_Field>
OPLS_2005

> <r_lp_Energy>
24.2978

> <b_lp_Chiralities_Consistent>
1

> <s_lp_Variant>
AV-unprocessed.smi:3187-7

> <Gold.Version>
5.8.1

> <Gold.Id.Protein>
6NUR|6NUR_protein|mol2

> <Gold.PLP.Fitness>
53.6203

> <Gold.PLP.PLP>
-45.6871

> <Gold.PLP.part.hbond>
-2.0000

> <Gold.PLP.part.metal>
0.0000

> <Gold.PLP.part.buried>
-4.9848

> <Gold.PLP.part.nonpolar>
-38.4407

> <Gold.PLP.part.repulsive>
0.1168

> <Gold.PLP.ligand.clash>
0.0000

> <Gold.PLP.ligand.torsion>
0.6013

> <Gold.PLP.Chemscore.Hbond>
2.0000

> <Gold.PLP.Chemscore.CHOScore>
1.0000

> <Gold.PLP.Chemscore.Metal>
0.0000

> <Gold.Chemscore.Hbonds>
donor molecule, donor type, donor heavy atom, donor atom, acceptor molecule, acceptor atom, score
      L1  H    16    42       P1  7948  0.50
      L1  C    17    40       P1  7957  0.60

> <Gold.PLP.Chemscore.Internal.Correction>
0.1358

> <Gold.Rescore>
     Score         DG    S(hbond)    S(metal)    S(lipo)     H(rot)  DE(clash)    DE(int)     intcor
     17.11     -18.04       1.06        0.00     120.21       1.97       0.30       0.63       ----

> <Gold.Chemscore.Fitness>
17.1131

> <Gold.Chemscore.DG>
-18.0401

> <Gold.Chemscore.ZeroCoef>
-5.4800

> <Gold.Chemscore.Hbond>
1.0619

> <Gold.Chemscore.Metal>
0.0000

> <Gold.Chemscore.Lipo>
120.2112

> <Gold.Chemscore.Internal_Hbond>
0.0000

> <Gold.Chemscore.DEClash>
0.2958

> <Gold.Chemscore.DEInternal>
0.6312

> <Gold.Chemscore.Rot>
1.9732

> <Gold.Chemscore.Internal.Correction>
   9.000000E+99

> <Gold.Chemscore.Hbond.Weighted>
-3.5468

> <Gold.Chemscore.Metal.Weighted>
-0.0000

> <Gold.Chemscore.Lipo.Weighted>
-14.0647

> <Gold.Chemscore.Internal_Hbond.Weighted>
0.0000

> <Gold.Chemscore.DEClash.Weighted>
0.2958

> <Gold.Chemscore.DEInternal.Weighted>
0.6312

> <Gold.Chemscore.Rot.Weighted>
5.0514

> <Gold.Chemscore.Internal.Correction.Weighted>
   9.000000E+99

> <Gold.Protein.RotatedTorsions>
[ 6907 6896 6895 6894 ] final    4.78 input  -60.11 | X-H torsion
[ 7974 7965 7964 7962 ] final -122.35 input  175.53 | X-H torsion
[ 8008 7997 7996 7995 ] final -162.35 input   59.86 | X-H torsion
[ 10167 10162 10161 10158 ] final  -97.27 input  -65.29 | X-H torsion
[ 10718 10713 10712 10709 ] final  144.14 input   66.30 | X-H torsion
[ 10763 10752 10751 10750 ] final   63.63 input  -60.55 | X-H torsion
[ 11005 11000 10999 10996 ] final -125.21 input  -57.11 | X-H torsion

> <Gold.Protein.ActiveResidues>
 VAL166  LYS551  ARG553  GLY616  TRP617  ASP618  TYR619  PRO620  LYS621  CYS622 
 ASP623  PHE694  ASN695  SER759  ASP760  ASP761  ALA762  ILE779  LEU786  VAL792 
 PHE793  MET794  SER795  GLU796  ALA797  LYS798  CYS799  TRP800  GLU811  SER814 

> <Gold.Protein.RotatedAtoms>
  151.6468  135.1006  160.0152 H   0  0  0  0  0  0  0  0  0  0  0  0  # atno 6907 bound_to 6896
  152.4023  133.6833  159.6335 H   0  0  0  0  0  0  0  0  0  0  0  0  # atno 6908 bound_to 6896
  150.7922  133.8686  159.3293 H   0  0  0  0  0  0  0  0  0  0  0  0  # atno 6909 bound_to 6896
  145.0304  140.8062  143.4327 H   0  0  0  0  0  0  0  0  0  0  0  0  # atno 7974 bound_to 7965
  155.8056  140.0898  157.1933 H   0  0  0  0  0  0  0  0  0  0  0  0  # atno 8008 bound_to 7997
  154.3981  140.1464  156.3385 H   0  0  0  0  0  0  0  0  0  0  0  0  # atno 8009 bound_to 7997
  155.8418  140.3438  155.5639 H   0  0  0  0  0  0  0  0  0  0  0  0  # atno 8010 bound_to 7997
  140.2852  143.3257  152.0402 H   0  0  0  0  0  0  0  0  0  0  0  0  # atno 10167 bound_to 10162
  157.3607  131.0964  151.0918 H   0  0  0  0  0  0  0  0  0  0  0  0  # atno 10718 bound_to 10713
  153.0025  135.5422  154.6382 H   0  0  0  0  0  0  0  0  0  0  0  0  # atno 10763 bound_to 10752
  154.5643  135.2836  155.0891 H   0  0  0  0  0  0  0  0  0  0  0  0  # atno 10764 bound_to 10752
  154.2081  135.6472  153.5159 H   0  0  0  0  0  0  0  0  0  0  0  0  # atno 10765 bound_to 10752
  140.9780  134.0714  157.3797 H   0  0  0  0  0  0  0  0  0  0  0  0  # atno 11005 bound_to 11000
  145.1778  139.2368  143.5308 LP  0  0  0  0  0  0  0  0  0  0  0  0  # atno 17320 bound_to 7965
  146.3498  140.1545  142.8592 LP  0  0  0  0  0  0  0  0  0  0  0  0  # atno 17321 bound_to 7965
  139.4952  144.6564  151.6563 LP  0  0  0  0  0  0  0  0  0  0  0  0  # atno 17342 bound_to 10162
  140.5779  143.9997  150.6252 LP  0  0  0  0  0  0  0  0  0  0  0  0  # atno 17343 bound_to 10162
  157.2058  130.6415  149.5755 LP  0  0  0  0  0  0  0  0  0  0  0  0  # atno 17370 bound_to 10713
  155.9737  130.4676  150.6330 LP  0  0  0  0  0  0  0  0  0  0  0  0  # atno 17371 bound_to 10713
  139.8938  135.0132  156.6919 LP  0  0  0  0  0  0  0  0  0  0  0  0  # atno 17394 bound_to 11000
  140.7230  133.9124  155.8159 LP  0  0  0  0  0  0  0  0  0  0  0  0  # atno 17395 bound_to 11000

$$$$
