AV-unprocessed.smi:3172|AV-procd|sdf|12115|dock4
  -GOLD-   2272017553D 1   1.00000     0.00000
 Structure written by MMmdl.
 43 44  0  0  0  0  0  0  0  0  2 V2000
  145.1768  143.5684  154.0667 C   0  0  0  0  0  0  0  0  0  0  0  0
  146.4186  142.7450  154.2128 C   0  0  0  0  0  0  0  0  0  0  0  0
  147.1896  142.3992  153.1061 N   0  0  0  0  0  0  0  0  0  0  0  0
  148.1816  141.6883  153.6211 C   0  0  0  0  0  0  0  0  0  0  0  0
  148.1211  141.5283  154.9506 N   0  0  0  0  0  0  0  0  0  0  0  0
  149.0542  140.7724  155.7712 C   0  0  0  0  0  0  0  0  0  0  0  0
  150.1214  141.6789  156.4130 C   0  0  2  0  0  0  0  0  0  0  0  0
  151.1066  140.8690  157.2672 C   0  0  0  0  0  0  0  0  0  0  0  0
  149.4751  142.7276  157.2360 N   0  3  0  0  0  0  0  0  0  0  0  0
  150.3343  143.3546  158.2636 C   0  0  0  0  0  0  0  0  0  0  0  0
  149.5048  144.3425  159.1054 C   0  0  0  0  0  0  0  0  0  0  0  0
  150.3706  145.0474  160.1621 C   0  0  0  0  0  0  0  0  0  0  0  0
  151.5648  145.7640  159.5131 C   0  0  0  0  0  0  0  0  0  0  0  0
  152.3990  144.7923  158.6648 C   0  0  0  0  0  0  0  0  0  0  0  0
  151.5315  144.0826  157.6131 C   0  0  0  0  0  0  0  0  0  0  0  0
  146.9831  142.2232  155.3577 C   0  0  0  0  0  0  0  0  0  0  0  0
  146.5317  142.3222  156.7800 C   0  0  0  0  0  0  0  0  0  0  0  0
  145.3707  144.6146  154.3034 H   0  0  0  0  0  0  0  0  0  0  0  0
  144.3896  143.2184  154.7347 H   0  0  0  0  0  0  0  0  0  0  0  0
  144.7857  143.5257  153.0498 H   0  0  0  0  0  0  0  0  0  0  0  0
  148.9655  141.2608  153.0128 H   0  0  0  0  0  0  0  0  0  0  0  0
  148.4938  140.2373  156.5396 H   0  0  0  0  0  0  0  0  0  0  0  0
  149.5235  140.0116  155.1470 H   0  0  0  0  0  0  0  0  0  0  0  0
  150.6888  142.1468  155.6090 H   0  0  0  0  0  0  0  0  0  0  0  0
  151.6070  140.1063  156.6698 H   0  0  0  0  0  0  0  0  0  0  0  0
  150.5984  140.3653  158.0901 H   0  0  0  0  0  0  0  0  0  0  0  0
  151.8796  141.5085  157.6944 H   0  0  0  0  0  0  0  0  0  0  0  0
  149.1543  143.4637  156.6231 H   0  0  0  0  0  0  0  0  0  0  0  0
  150.7042  142.5730  158.9294 H   0  0  0  0  0  0  0  0  0  0  0  0
  149.0473  145.0905  158.4561 H   0  0  0  0  0  0  0  0  0  0  0  0
  148.6851  143.8177  159.5977 H   0  0  0  0  0  0  0  0  0  0  0  0
  149.7669  145.7637  160.7204 H   0  0  0  0  0  0  0  0  0  0  0  0
  150.7321  144.3167  160.8869 H   0  0  0  0  0  0  0  0  0  0  0  0
  151.2047  146.5806  158.8860 H   0  0  0  0  0  0  0  0  0  0  0  0
  152.1902  146.2179  160.2823 H   0  0  0  0  0  0  0  0  0  0  0  0
  153.2105  145.3312  158.1745 H   0  0  0  0  0  0  0  0  0  0  0  0
  152.8679  144.0507  159.3127 H   0  0  0  0  0  0  0  0  0  0  0  0
  152.1528  143.3846  157.0523 H   0  0  0  0  0  0  0  0  0  0  0  0
  151.1687  144.8147  156.8898 H   0  0  0  0  0  0  0  0  0  0  0  0
  145.8194  143.1373  156.9072 H   0  0  0  0  0  0  0  0  0  0  0  0
  147.3696  142.5129  157.4502 H   0  0  0  0  0  0  0  0  0  0  0  0
  146.0430  141.4016  157.0975 H   0  0  0  0  0  0  0  0  0  0  0  0
  148.6706  142.3158  157.6870 H   0  0  0  0  0  0  0  0  0  0  0  0
  1  2  1  0  0  0  0
  1 18  1  0  0  0  0
  1 19  1  0  0  0  0
  1 20  1  0  0  0  0
  2 16  2  0  0  0  0
  2  3  1  0  0  0  0
  3  4  2  0  0  0  0
  4  5  1  0  0  0  0
  4 21  1  0  0  0  0
  5  6  1  0  0  0  0
  5 16  1  0  0  0  0
  6  7  1  0  0  0  0
  6 22  1  0  0  0  0
  6 23  1  0  0  0  0
  7  8  1  0  0  0  0
  7  9  1  0  0  0  0
  7 24  1  0  0  0  0
  8 25  1  0  0  0  0
  8 26  1  0  0  0  0
  8 27  1  0  0  0  0
  9 10  1  0  0  0  0
  9 28  1  0  0  0  0
  9 43  1  0  0  0  0
 10 15  1  0  0  0  0
 10 11  1  0  0  0  0
 10 29  1  0  0  0  0
 11 12  1  0  0  0  0
 11 30  1  0  0  0  0
 11 31  1  0  0  0  0
 12 13  1  0  0  0  0
 12 32  1  0  0  0  0
 12 33  1  0  0  0  0
 13 14  1  0  0  0  0
 13 34  1  0  0  0  0
 13 35  1  0  0  0  0
 14 15  1  0  0  0  0
 14 36  1  0  0  0  0
 14 37  1  0  0  0  0
 15 38  1  0  0  0  0
 15 39  1  0  0  0  0
 16 17  1  0  0  0  0
 17 40  1  0  0  0  0
 17 41  1  0  0  0  0
 17 42  1  0  0  0  0
M  CHG  1   9   1
M  END
> <s_m_source_file>
AV-unprocessed.smi

> <i_m_source_file_index>
3172

> <i_lp_mmshare_version>
43012

> <i_f3d_flags>
0

> <s_epik_input>
W0NIM11jMW5bY0hdbihjMVtDSDNdKVtDSDJdW0NASF0oW0NIM10pW05IXVtDSF0yW0NIMl1bQ0gyXVtDSDJdW0NIMl1bQ0gyXTI=

> <s_epik_cmdline>
J2VwaWtfcHl0aG9uJywgJy1waCcsICc3LjAnLCAnLXRuJywgJzgnLCAnLW1hJywgJzIwMCcsICctbWV0YWxfYmluZGluZycsICctaW1hZScsICc8aW5maWxlLm1hZT4nLCAnLW9tYWUnLCAnPG91dGZpbGUubWFlPic=

> <r_lp_tautomer_probability>
1

> <r_epik_Ionization_Penalty>
0.328572

> <r_epik_Ionization_Penalty_Charging>
0.328572

> <r_epik_Ionization_Penalty_Neutral>
3.58496e-13

> <r_epik_State_Penalty>
0.596179

> <r_epik_Charging_Adjusted_Penalty>
0.924751

> <i_epik_Tot_Q>
1

> <i_epik_Tot_abs_Q>
1

> <r_epik_Metal_State_Penalty>
0.00102252

> <b_epik_Metal_Only>
0

> <s_lp_Force_Field>
OPLS_2005

> <r_lp_Energy>
15.8324

> <b_lp_Chiralities_Consistent>
1

> <s_lp_Variant>
AV-unprocessed.smi:3172-3

> <Gold.Version>
5.8.1

> <Gold.Id.Protein>
6NUR|6NUR_protein|mol2

> <Gold.PLP.Fitness>
46.2083

> <Gold.PLP.PLP>
-38.2900

> <Gold.PLP.part.hbond>
-1.0000

> <Gold.PLP.part.metal>
0.0000

> <Gold.PLP.part.buried>
-3.6509

> <Gold.PLP.part.nonpolar>
-33.1484

> <Gold.PLP.part.repulsive>
0.2134

> <Gold.PLP.ligand.clash>
0.0000

> <Gold.PLP.ligand.torsion>
0.5667

> <Gold.PLP.Chemscore.Hbond>
2.0000

> <Gold.PLP.Chemscore.CHOScore>
1.0000

> <Gold.PLP.Chemscore.Metal>
0.0000

> <Gold.Chemscore.Hbonds>
donor molecule, donor type, donor heavy atom, donor atom, acceptor molecule, acceptor atom, score
      L1  H     9    28       P1  8028  2.00
      L1  C     4    21       P1  7957  1.00

> <Gold.PLP.Chemscore.Internal.Correction>
0.0518

> <Gold.Rescore>
     Score         DG    S(hbond)    S(metal)    S(lipo)     H(rot)  DE(clash)    DE(int)     intcor
     16.15     -16.86       0.99        0.00     101.79       1.50       0.10       0.61       ----

> <Gold.Chemscore.Fitness>
16.1474

> <Gold.Chemscore.DG>
-16.8642

> <Gold.Chemscore.ZeroCoef>
-5.4800

> <Gold.Chemscore.Hbond>
0.9925

> <Gold.Chemscore.Metal>
0.0000

> <Gold.Chemscore.Lipo>
101.7861

> <Gold.Chemscore.Internal_Hbond>
0.0000

> <Gold.Chemscore.DEClash>
0.1024

> <Gold.Chemscore.DEInternal>
0.6144

> <Gold.Chemscore.Rot>
1.4999

> <Gold.Chemscore.Internal.Correction>
   9.000000E+99

> <Gold.Chemscore.Hbonds>
donor molecule, donor type, donor heavy atom, donor atom, acceptor molecule, acceptor atom, score
      L1  H     9    28       P1  8028  0.96

> <Gold.Chemscore.Hbond.Weighted>
-3.3149

> <Gold.Chemscore.Metal.Weighted>
-0.0000

> <Gold.Chemscore.Lipo.Weighted>
-11.9090

> <Gold.Chemscore.Internal_Hbond.Weighted>
0.0000

> <Gold.Chemscore.DEClash.Weighted>
0.1024

> <Gold.Chemscore.DEInternal.Weighted>
0.6144

> <Gold.Chemscore.Rot.Weighted>
3.8397

> <Gold.Chemscore.Internal.Correction.Weighted>
   9.000000E+99

> <Gold.Protein.RotatedTorsions>
[ 6907 6896 6895 6894 ] final   80.60 input  -60.11 | X-H torsion
[ 7974 7965 7964 7962 ] final   35.84 input  175.53 | X-H torsion
[ 8008 7997 7996 7995 ] final  -56.07 input   59.86 | X-H torsion
[ 10167 10162 10161 10158 ] final  -79.88 input  -65.29 | X-H torsion
[ 10718 10713 10712 10709 ] final  159.94 input   66.30 | X-H torsion
[ 10763 10752 10751 10750 ] final  133.83 input  -60.55 | X-H torsion
[ 11005 11000 10999 10996 ] final   36.48 input  -57.11 | X-H torsion

> <Gold.Protein.ActiveResidues>
 VAL166  LYS551  ARG553  GLY616  TRP617  ASP618  TYR619  PRO620  LYS621  CYS622 
 ASP623  PHE694  ASN695  SER759  ASP760  ASP761  ALA762  ILE779  LEU786  VAL792 
 PHE793  MET794  SER795  GLU796  ALA797  LYS798  CYS799  TRP800  GLU811  SER814 

> <Gold.Protein.RotatedAtoms>
  152.5240  134.3333  159.9190 H   0  0  0  0  0  0  0  0  0  0  0  0  # atno 6907 bound_to 6896
  151.3282  133.4005  159.2668 H   0  0  0  0  0  0  0  0  0  0  0  0  # atno 6908 bound_to 6896
  150.9902  134.9256  159.7953 H   0  0  0  0  0  0  0  0  0  0  0  0  # atno 6909 bound_to 6896
  146.1254  139.6092  142.9262 H   0  0  0  0  0  0  0  0  0  0  0  0  # atno 7974 bound_to 7965
  154.4217  140.1138  156.5578 H   0  0  0  0  0  0  0  0  0  0  0  0  # atno 8008 bound_to 7997
  155.6343  140.3496  155.4674 H   0  0  0  0  0  0  0  0  0  0  0  0  # atno 8009 bound_to 7997
  155.9922  140.1182  157.0617 H   0  0  0  0  0  0  0  0  0  0  0  0  # atno 8010 bound_to 7997
  140.4553  143.2470  151.8429 H   0  0  0  0  0  0  0  0  0  0  0  0  # atno 10167 bound_to 10162
  157.1573  131.0578  151.2250 H   0  0  0  0  0  0  0  0  0  0  0  0  # atno 10718 bound_to 10713
  153.8136  135.3125  155.3403 H   0  0  0  0  0  0  0  0  0  0  0  0  # atno 10763 bound_to 10752
  154.8041  135.4708  154.0352 H   0  0  0  0  0  0  0  0  0  0  0  0  # atno 10764 bound_to 10752
  153.1738  135.6882  153.8660 H   0  0  0  0  0  0  0  0  0  0  0  0  # atno 10765 bound_to 10752
  140.2321  134.3515  155.7959 H   0  0  0  0  0  0  0  0  0  0  0  0  # atno 11005 bound_to 11000
  145.5376  141.0423  143.2348 LP  0  0  0  0  0  0  0  0  0  0  0  0  # atno 17320 bound_to 7965
  144.7637  139.6895  143.7223 LP  0  0  0  0  0  0  0  0  0  0  0  0  # atno 17321 bound_to 7965
  139.4800  144.5072  151.8982 LP  0  0  0  0  0  0  0  0  0  0  0  0  # atno 17342 bound_to 10162
  140.4158  144.2308  150.5888 LP  0  0  0  0  0  0  0  0  0  0  0  0  # atno 17343 bound_to 10162
  157.4165  130.7414  149.6879 LP  0  0  0  0  0  0  0  0  0  0  0  0  # atno 17370 bound_to 10713
  155.9760  130.4081  150.3811 LP  0  0  0  0  0  0  0  0  0  0  0  0  # atno 17371 bound_to 10713
  141.2217  133.7251  156.8749 LP  0  0  0  0  0  0  0  0  0  0  0  0  # atno 17394 bound_to 11000
  140.1740  134.9080  157.2867 LP  0  0  0  0  0  0  0  0  0  0  0  0  # atno 17395 bound_to 11000

$$$$
