AV-unprocessed.smi:247|AV-procd|sdf|1895|dock8
  -GOLD-   2262020563D 1   1.00000     0.00000
 Structure written by MMmdl.
 61 65  0  0  0  0  0  0  0  0  1 V2000
  146.2315  138.3958  162.7223 O   0  0  0  0  0  0  0  0  0  0  0  0
  146.0073  137.8233  161.4487 C   0  0  0  0  0  0  0  0  0  0  0  0
  146.1220  136.2733  161.4384 C   0  0  0  0  0  0  0  0  0  0  0  0
  146.2711  135.7961  159.9588 C   0  0  0  0  0  0  0  0  0  0  0  0
  147.4427  136.3033  159.2578 N   0  0  0  0  0  0  0  0  0  0  0  0
  148.7579  136.1582  159.6391 C   0  0  0  0  0  0  0  0  0  0  0  0
  149.6343  136.6929  158.8343 N   0  0  0  0  0  0  0  0  0  0  0  0
  148.8695  137.2292  157.8050 C   0  0  0  0  0  0  0  0  0  0  0  0
  149.1752  137.9402  156.6094 C   0  0  0  0  0  0  0  0  0  0  0  0
  150.4484  138.2312  156.2332 N   0  0  0  0  0  0  0  0  0  0  0  0
  151.0995  137.2744  155.3436 C   0  0  0  0  0  0  0  0  0  0  0  0
  151.9483  138.0970  154.3702 C   0  0  0  0  0  0  0  0  0  0  0  0
  152.1755  139.4101  155.1109 C   0  0  0  0  0  0  0  0  0  0  0  0
  150.8585  139.5907  155.8771 C   0  0  2  0  0  0  0  0  0  0  0  0
  150.9085  140.5708  157.0845 C   0  0  1  0  0  0  0  0  0  0  0  0
  152.1083  140.3223  158.0297 C   0  0  0  0  0  0  0  0  0  0  0  0
  152.0571  141.2087  159.1425 O   0  0  0  0  0  0  0  0  0  0  0  0
  152.1650  142.5767  158.7671 C   0  0  0  0  0  0  0  0  0  0  0  0
  150.9690  142.9635  157.8857 C   0  0  0  0  0  0  0  0  0  0  0  0
  150.8961  142.0529  156.6520 C   0  0  2  0  0  0  0  0  0  0  0  0
  149.7163  142.3577  155.9346 O   0  0  0  0  0  0  0  0  0  0  0  0
  148.1293  138.3228  155.8293 N   0  0  0  0  0  0  0  0  0  0  0  0
  146.8755  138.0287  156.1842 C   0  0  0  0  0  0  0  0  0  0  0  0
  146.4465  137.3704  157.2623 N   0  0  0  0  0  0  0  0  0  0  0  0
  147.4883  136.9899  158.0559 C   0  0  0  0  0  0  0  0  0  0  0  0
  147.3206  135.8292  162.3166 C   0  0  0  0  0  0  0  0  0  0  0  0
  147.3511  134.3061  162.5371 C   0  0  0  0  0  0  0  0  0  0  0  0
  146.1292  133.8788  163.1266 O   0  0  0  0  0  0  0  0  0  0  0  0
  144.9957  134.1260  162.3032 C   0  0  0  0  0  0  0  0  0  0  0  0
  144.8443  135.6378  162.0458 C   0  0  0  0  0  0  0  0  0  0  0  0
  145.4430  138.8389  162.9960 H   0  0  0  0  0  0  0  0  0  0  0  0
  145.0170  138.1317  161.1113 H   0  0  0  0  0  0  0  0  0  0  0  0
  146.7281  138.2696  160.7639 H   0  0  0  0  0  0  0  0  0  0  0  0
  146.3067  134.7101  159.8931 H   0  0  0  0  0  0  0  0  0  0  0  0
  145.3886  136.0878  159.3875 H   0  0  0  0  0  0  0  0  0  0  0  0
  149.0500  135.6435  160.5426 H   0  0  0  0  0  0  0  0  0  0  0  0
  151.7354  136.6220  155.9429 H   0  0  0  0  0  0  0  0  0  0  0  0
  150.3857  136.6483  154.8060 H   0  0  0  0  0  0  0  0  0  0  0  0
  152.8764  137.5979  154.0903 H   0  0  0  0  0  0  0  0  0  0  0  0
  151.3802  138.2862  153.4584 H   0  0  0  0  0  0  0  0  0  0  0  0
  153.0214  139.2972  155.7878 H   0  0  0  0  0  0  0  0  0  0  0  0
  152.3906  140.2396  154.4370 H   0  0  0  0  0  0  0  0  0  0  0  0
  150.1267  139.9666  155.1603 H   0  0  0  0  0  0  0  0  0  0  0  0
  150.0107  140.4096  157.6815 H   0  0  0  0  0  0  0  0  0  0  0  0
  152.0866  139.3020  158.4128 H   0  0  0  0  0  0  0  0  0  0  0  0
  153.0619  140.4468  157.5167 H   0  0  0  0  0  0  0  0  0  0  0  0
  152.1805  143.1897  159.6685 H   0  0  0  0  0  0  0  0  0  0  0  0
  153.1075  142.7516  158.2459 H   0  0  0  0  0  0  0  0  0  0  0  0
  150.0517  142.8757  158.4698 H   0  0  0  0  0  0  0  0  0  0  0  0
  151.0491  144.0082  157.5829 H   0  0  0  0  0  0  0  0  0  0  0  0
  151.7514  142.2600  156.0076 H   0  0  0  0  0  0  0  0  0  0  0  0
  149.6252  143.2972  155.8901 H   0  0  0  0  0  0  0  0  0  0  0  0
  146.1064  138.3685  155.5065 H   0  0  0  0  0  0  0  0  0  0  0  0
  148.2661  136.1712  161.8977 H   0  0  0  0  0  0  0  0  0  0  0  0
  147.2532  136.2991  163.2983 H   0  0  0  0  0  0  0  0  0  0  0  0
  147.5305  133.7672  161.6065 H   0  0  0  0  0  0  0  0  0  0  0  0
  148.1692  134.0464  163.2090 H   0  0  0  0  0  0  0  0  0  0  0  0
  145.0756  133.5619  161.3739 H   0  0  0  0  0  0  0  0  0  0  0  0
  144.1096  133.7497  162.8145 H   0  0  0  0  0  0  0  0  0  0  0  0
  144.6090  136.1052  163.0021 H   0  0  0  0  0  0  0  0  0  0  0  0
  143.9833  135.8231  161.4027 H   0  0  0  0  0  0  0  0  0  0  0  0
  1  2  1  0  0  0  0
  1 31  1  0  0  0  0
  2  3  1  0  0  0  0
  2 32  1  0  0  0  0
  2 33  1  0  0  0  0
  3 30  1  0  0  0  0
  3  4  1  0  0  0  0
  3 26  1  0  0  0  0
  4  5  1  0  0  0  0
  4 34  1  0  0  0  0
  4 35  1  0  0  0  0
  5 25  1  0  0  0  0
  5  6  1  0  0  0  0
  6  7  2  0  0  0  0
  6 36  1  0  0  0  0
  7  8  1  0  0  0  0
  8 25  2  0  0  0  0
  8  9  1  0  0  0  0
  9 10  1  0  0  0  0
  9 22  2  0  0  0  0
 10 14  1  0  0  0  0
 10 11  1  0  0  0  0
 11 12  1  0  0  0  0
 11 37  1  0  0  0  0
 11 38  1  0  0  0  0
 12 13  1  0  0  0  0
 12 39  1  0  0  0  0
 12 40  1  0  0  0  0
 13 14  1  0  0  0  0
 13 41  1  0  0  0  0
 13 42  1  0  0  0  0
 14 15  1  0  0  0  0
 14 43  1  0  0  0  0
 15 20  1  0  0  0  0
 15 16  1  0  0  0  0
 15 44  1  0  0  0  0
 16 17  1  0  0  0  0
 16 45  1  0  0  0  0
 16 46  1  0  0  0  0
 17 18  1  0  0  0  0
 18 19  1  0  0  0  0
 18 47  1  0  0  0  0
 18 48  1  0  0  0  0
 19 20  1  0  0  0  0
 19 49  1  0  0  0  0
 19 50  1  0  0  0  0
 20 21  1  0  0  0  0
 20 51  1  0  0  0  0
 21 52  1  0  0  0  0
 22 23  1  0  0  0  0
 23 24  2  0  0  0  0
 23 53  1  0  0  0  0
 24 25  1  0  0  0  0
 26 27  1  0  0  0  0
 26 54  1  0  0  0  0
 26 55  1  0  0  0  0
 27 28  1  0  0  0  0
 27 56  1  0  0  0  0
 27 57  1  0  0  0  0
 28 29  1  0  0  0  0
 29 30  1  0  0  0  0
 29 58  1  0  0  0  0
 29 59  1  0  0  0  0
 30 60  1  0  0  0  0
 30 61  1  0  0  0  0
M  END
> <s_m_source_file>
AV-unprocessed.smi

> <i_m_source_file_index>
247

> <i_lp_mmshare_version>
43012

> <i_f3d_flags>
0

> <s_epik_input>
W0NIMl0xW0NIMl1PW0NIMl1bQ0gyXUMxKFtDSDJdW09IXSlbQ0gyXW4oW2NIXW4yKWMoYzIzKW5bY0hdbmMzTjRbQ0gyXVtDSDJdW0NIMl1bQ0BIXTRbQ0BASF01W0NIMl1PW0NIMl1bQ0gyXVtDQEhdNVtPSF0=

> <s_epik_cmdline>
J2VwaWtfcHl0aG9uJywgJy1waCcsICc3LjAnLCAnLXRuJywgJzgnLCAnLW1hJywgJzIwMCcsICctbWV0YWxfYmluZGluZycsICctaW1hZScsICc8aW5maWxlLm1hZT4nLCAnLW9tYWUnLCAnPG91dGZpbGUubWFlPic=

> <r_lp_tautomer_probability>
1

> <r_epik_Ionization_Penalty>
0.00362597

> <r_epik_Ionization_Penalty_Charging>
0

> <r_epik_Ionization_Penalty_Neutral>
0.00362597

> <r_epik_State_Penalty>
0.00241433

> <r_epik_Charging_Adjusted_Penalty>
0.00241433

> <i_epik_Tot_Q>
0

> <i_epik_Tot_abs_Q>
0

> <r_epik_Metal_State_Penalty>
-0

> <b_epik_Metal_Only>
0

> <s_lp_Force_Field>
OPLS_2005

> <r_lp_Energy>
58.878

> <b_lp_Chiralities_Consistent>
1

> <s_lp_Variant>
AV-unprocessed.smi:247-8

> <Gold.Version>
5.8.1

> <Gold.Id.Protein>
6NUR|6NUR_protein|mol2

> <Gold.PLP.Fitness>
44.5905

> <Gold.PLP.PLP>
-42.9122

> <Gold.PLP.part.hbond>
-3.8739

> <Gold.PLP.part.metal>
0.0000

> <Gold.PLP.part.buried>
-3.3253

> <Gold.PLP.part.nonpolar>
-35.3796

> <Gold.PLP.part.repulsive>
0.0544

> <Gold.PLP.ligand.clash>
0.0000

> <Gold.PLP.ligand.torsion>
0.8912

> <Gold.PLP.Chemscore.Hbond>
1.0139

> <Gold.PLP.Chemscore.CHOScore>
0.0000

> <Gold.PLP.Chemscore.Metal>
0.0000

> <Gold.Chemscore.Hbonds>
donor molecule, donor type, donor heavy atom, donor atom, acceptor molecule, acceptor atom, score
      L1  H    21    52       P1  8028  1.00

> <Gold.PLP.Chemscore.Internal.Correction>
0.4190

> <Gold.Rescore>
     Score         DG    S(hbond)    S(metal)    S(lipo)     H(rot)  DE(clash)    DE(int)     intcor
     11.24     -13.60       0.99        0.00     111.79       3.23       1.43       0.93       ----

> <Gold.Chemscore.Fitness>
11.2442

> <Gold.Chemscore.DG>
-13.6020

> <Gold.Chemscore.ZeroCoef>
-5.4800

> <Gold.Chemscore.Hbond>
0.9899

> <Gold.Chemscore.Metal>
0.0000

> <Gold.Chemscore.Lipo>
111.7875

> <Gold.Chemscore.Internal_Hbond>
0.0000

> <Gold.Chemscore.DEClash>
1.4280

> <Gold.Chemscore.DEInternal>
0.9298

> <Gold.Chemscore.Rot>
3.2278

> <Gold.Chemscore.Internal.Correction>
   9.000000E+99

> <Gold.Chemscore.Hbonds>
donor molecule, donor type, donor heavy atom, donor atom, acceptor molecule, acceptor atom, score
      L1  H    21    52       P1  8028  0.98

> <Gold.Chemscore.Hbond.Weighted>
-3.3062

> <Gold.Chemscore.Metal.Weighted>
-0.0000

> <Gold.Chemscore.Lipo.Weighted>
-13.0791

> <Gold.Chemscore.Internal_Hbond.Weighted>
0.0000

> <Gold.Chemscore.DEClash.Weighted>
1.4280

> <Gold.Chemscore.DEInternal.Weighted>
0.9298

> <Gold.Chemscore.Rot.Weighted>
8.2633

> <Gold.Chemscore.Internal.Correction.Weighted>
   9.000000E+99

> <Gold.Protein.RotatedTorsions>
[ 6907 6896 6895 6894 ] final  -43.17 input  -60.11 | X-H torsion
[ 7974 7965 7964 7962 ] final  -21.25 input  175.53 | X-H torsion
[ 8008 7997 7996 7995 ] final  130.23 input   59.86 | X-H torsion
[ 10167 10162 10161 10158 ] final   42.43 input  -65.29 | X-H torsion
[ 10718 10713 10712 10709 ] final  -60.79 input   66.30 | X-H torsion
[ 10763 10752 10751 10750 ] final -131.28 input  -60.55 | X-H torsion
[ 11005 11000 10999 10996 ] final -131.94 input  -57.11 | X-H torsion

> <Gold.Protein.ActiveResidues>
 VAL166  LYS551  ARG553  GLY616  TRP617  ASP618  TYR619  PRO620  LYS621  CYS622 
 ASP623  PHE694  ASN695  SER759  ASP760  ASP761  ALA762  ILE779  LEU786  VAL792 
 PHE793  MET794  SER795  GLU796  ALA797  LYS798  CYS799  TRP800  GLU811  SER814 

> <Gold.Protein.RotatedAtoms>
  150.9470  134.8874  159.7647 H   0  0  0  0  0  0  0  0  0  0  0  0  # atno 6907 bound_to 6896
  152.5104  134.3861  159.9378 H   0  0  0  0  0  0  0  0  0  0  0  0  # atno 6908 bound_to 6896
  151.3879  133.3759  159.2752 H   0  0  0  0  0  0  0  0  0  0  0  0  # atno 6909 bound_to 6896
  146.1743  140.4315  142.8520 H   0  0  0  0  0  0  0  0  0  0  0  0  # atno 7974 bound_to 7965
  156.2951  140.2601  156.2728 H   0  0  0  0  0  0  0  0  0  0  0  0  # atno 8008 bound_to 7997
  154.9678  140.0391  157.2239 H   0  0  0  0  0  0  0  0  0  0  0  0  # atno 8009 bound_to 7997
  154.7887  140.2808  155.6013 H   0  0  0  0  0  0  0  0  0  0  0  0  # atno 8010 bound_to 7997
  140.3544  144.2308  150.6143 H   0  0  0  0  0  0  0  0  0  0  0  0  # atno 10167 bound_to 10162
  156.0966  130.4192  150.0903 H   0  0  0  0  0  0  0  0  0  0  0  0  # atno 10718 bound_to 10713
  154.8751  135.3835  154.4221 H   0  0  0  0  0  0  0  0  0  0  0  0  # atno 10763 bound_to 10752
  153.4924  135.7030  153.5882 H   0  0  0  0  0  0  0  0  0  0  0  0  # atno 10764 bound_to 10752
  153.4250  135.3892  155.2102 H   0  0  0  0  0  0  0  0  0  0  0  0  # atno 10765 bound_to 10752
  140.9214  134.1439  157.4310 H   0  0  0  0  0  0  0  0  0  0  0  0  # atno 11005 bound_to 11000
  144.8212  140.6553  143.6352 LP  0  0  0  0  0  0  0  0  0  0  0  0  # atno 17320 bound_to 7965
  145.4254  139.1557  143.4051 LP  0  0  0  0  0  0  0  0  0  0  0  0  # atno 17321 bound_to 7965
  140.5188  143.2271  151.8422 LP  0  0  0  0  0  0  0  0  0  0  0  0  # atno 17342 bound_to 10162
  139.4822  144.4862  151.9243 LP  0  0  0  0  0  0  0  0  0  0  0  0  # atno 17343 bound_to 10162
  156.8901  130.9585  151.3589 LP  0  0  0  0  0  0  0  0  0  0  0  0  # atno 17370 bound_to 10713
  157.6128  130.8596  149.8980 LP  0  0  0  0  0  0  0  0  0  0  0  0  # atno 17371 bound_to 10713
  139.8776  134.9973  156.5838 LP  0  0  0  0  0  0  0  0  0  0  0  0  # atno 17394 bound_to 11000
  140.7982  133.8527  155.8704 LP  0  0  0  0  0  0  0  0  0  0  0  0  # atno 17395 bound_to 11000

$$$$
