AV-unprocessed.smi:3164|AV-procd|sdf|12079|dock1
  -GOLD-   2272017503D 1   1.00000     0.00000
 Structure written by MMmdl.
 40 41  0  0  0  0  0  0  0  0  3 V2000
  143.2735  141.4646  155.9911 C   0  0  0  0  0  0  0  0  0  0  0  0
  144.3514  141.8738  155.0651 N   0  3  1  0  0  0  0  0  0  0  0  0
  144.3881  143.3369  154.8434 C   0  0  0  0  0  0  0  0  0  0  0  0
  145.5023  143.6967  153.8472 C   0  0  0  0  0  0  0  0  0  0  0  0
  146.7479  143.2025  154.3269 O   0  0  0  0  0  0  0  0  0  0  0  0
  146.7596  141.7833  154.4522 C   0  0  1  0  0  0  0  0  0  0  0  0
  148.1672  141.3546  154.8952 C   0  0  0  0  0  0  0  0  0  0  0  0
  148.5464  141.9922  156.1726 N   0  3  0  0  0  0  0  0  0  0  0  0
  149.6893  141.3492  156.8498 C   0  0  0  0  0  0  0  0  0  0  0  0
  150.9870  142.1307  156.6030 C   0  0  0  0  0  0  0  0  0  0  0  0
  151.4896  142.8177  157.8581 C   0  0  0  0  0  0  0  0  0  0  0  0
  151.7423  144.2060  157.8685 C   0  0  0  0  0  0  0  0  0  0  0  0
  152.2127  144.7930  159.0593 C   0  0  0  0  0  0  0  0  0  0  0  0
  152.4122  143.9727  160.1864 C   0  0  0  0  0  0  0  0  0  0  0  0
  152.1314  142.5966  160.0729 C   0  0  0  0  0  0  0  0  0  0  0  0
  151.6808  142.0239  158.9353 N   0  0  0  0  0  0  0  0  0  0  0  0
  145.6826  141.3703  155.4765 C   0  0  0  0  0  0  0  0  0  0  0  0
  143.4273  141.8871  156.9850 H   0  0  0  0  0  0  0  0  0  0  0  0
  143.2362  140.3786  156.0825 H   0  0  0  0  0  0  0  0  0  0  0  0
  142.3034  141.8006  155.6232 H   0  0  0  0  0  0  0  0  0  0  0  0
  143.4242  143.6771  154.4624 H   0  0  0  0  0  0  0  0  0  0  0  0
  144.5571  143.8482  155.7926 H   0  0  0  0  0  0  0  0  0  0  0  0
  145.2901  143.2869  152.8584 H   0  0  0  0  0  0  0  0  0  0  0  0
  145.5711  144.7788  153.7348 H   0  0  0  0  0  0  0  0  0  0  0  0
  146.5346  141.3279  153.4856 H   0  0  0  0  0  0  0  0  0  0  0  0
  148.2180  140.2694  154.9963 H   0  0  0  0  0  0  0  0  0  0  0  0
  148.8962  141.6407  154.1357 H   0  0  0  0  0  0  0  0  0  0  0  0
  148.7824  142.9583  155.9963 H   0  0  0  0  0  0  0  0  0  0  0  0
  149.4847  141.2911  157.9200 H   0  0  0  0  0  0  0  0  0  0  0  0
  149.7960  140.3267  156.4849 H   0  0  0  0  0  0  0  0  0  0  0  0
  151.7614  141.4606  156.2270 H   0  0  0  0  0  0  0  0  0  0  0  0
  150.8306  142.8833  155.8286 H   0  0  0  0  0  0  0  0  0  0  0  0
  151.5807  144.8100  156.9876 H   0  0  0  0  0  0  0  0  0  0  0  0
  152.4171  145.8524  159.1069 H   0  0  0  0  0  0  0  0  0  0  0  0
  152.7717  144.3888  161.1159 H   0  0  0  0  0  0  0  0  0  0  0  0
  152.2731  141.9384  160.9172 H   0  0  0  0  0  0  0  0  0  0  0  0
  145.9310  141.7640  156.4638 H   0  0  0  0  0  0  0  0  0  0  0  0
  145.6484  140.2835  155.5642 H   0  0  0  0  0  0  0  0  0  0  0  0
  147.7504  141.9617  156.7942 H   0  0  0  0  0  0  0  0  0  0  0  0
  144.1405  141.4499  154.1726 H   0  0  0  0  0  0  0  0  0  0  0  0
  1  2  1  0  0  0  0
  1 18  1  0  0  0  0
  1 19  1  0  0  0  0
  1 20  1  0  0  0  0
  2 17  1  0  0  0  0
  2  3  1  0  0  0  0
  2 40  1  0  0  0  0
  3  4  1  0  0  0  0
  3 21  1  0  0  0  0
  3 22  1  0  0  0  0
  4  5  1  0  0  0  0
  4 23  1  0  0  0  0
  4 24  1  0  0  0  0
  5  6  1  0  0  0  0
  6  7  1  0  0  0  0
  6 17  1  0  0  0  0
  6 25  1  0  0  0  0
  7  8  1  0  0  0  0
  7 26  1  0  0  0  0
  7 27  1  0  0  0  0
  8  9  1  0  0  0  0
  8 28  1  0  0  0  0
  8 39  1  0  0  0  0
  9 10  1  0  0  0  0
  9 29  1  0  0  0  0
  9 30  1  0  0  0  0
 10 11  1  0  0  0  0
 10 31  1  0  0  0  0
 10 32  1  0  0  0  0
 11 16  1  0  0  0  0
 11 12  2  0  0  0  0
 12 13  1  0  0  0  0
 12 33  1  0  0  0  0
 13 14  2  0  0  0  0
 13 34  1  0  0  0  0
 14 15  1  0  0  0  0
 14 35  1  0  0  0  0
 15 16  2  0  0  0  0
 15 36  1  0  0  0  0
 17 37  1  0  0  0  0
 17 38  1  0  0  0  0
M  CHG  1   2   1
M  CHG  1   8   1
M  END
> <s_m_source_file>
AV-unprocessed.smi

> <i_m_source_file_index>
3164

> <i_lp_mmshare_version>
43012

> <i_f3d_flags>
0

> <s_epik_input>
W0NIM11OMVtDSDJdW0NIMl1PW0NASF0oW0NIMl0xKVtDSDJdW05IXVtDSDJdW0NIMl1jMltjSF1bY0hdW2NIXVtjSF1uMg==

> <s_epik_cmdline>
J2VwaWtfcHl0aG9uJywgJy1waCcsICc3LjAnLCAnLXRuJywgJzgnLCAnLW1hJywgJzIwMCcsICctbWV0YWxfYmluZGluZycsICctaW1hZScsICc8aW5maWxlLm1hZT4nLCAnLW9tYWUnLCAnPG91dGZpbGUubWFlPic=

> <r_epik_Ionization_Penalty>
0.294944

> <r_epik_Ionization_Penalty_Charging>
0.29381

> <r_epik_Ionization_Penalty_Neutral>
0.00113372

> <r_epik_State_Penalty>
0.271365

> <r_epik_Charging_Adjusted_Penalty>
0.565175

> <i_epik_Tot_Q>
2

> <i_epik_Tot_abs_Q>
2

> <r_epik_Metal_State_Penalty>
0.271365

> <b_epik_Metal_Only>
0

> <s_lp_Force_Field>
OPLS_2005

> <r_lp_Energy>
20.3644

> <b_lp_Chiralities_Consistent>
1

> <s_lp_Variant>
AV-unprocessed.smi:3164-1

> <Gold.Version>
5.8.1

> <Gold.Id.Protein>
6NUR|6NUR_protein|mol2

> <Gold.PLP.Fitness>
47.5697

> <Gold.PLP.PLP>
-36.9373

> <Gold.PLP.part.hbond>
-2.1523

> <Gold.PLP.part.metal>
0.0000

> <Gold.PLP.part.buried>
-5.6654

> <Gold.PLP.part.nonpolar>
-31.0050

> <Gold.PLP.part.repulsive>
1.2081

> <Gold.PLP.ligand.clash>
0.0000

> <Gold.PLP.ligand.torsion>
0.7292

> <Gold.PLP.Chemscore.Hbond>
4.0000

> <Gold.PLP.Chemscore.CHOScore>
0.0000

> <Gold.PLP.Chemscore.Metal>
0.0000

> <Gold.Chemscore.Hbonds>
donor molecule, donor type, donor heavy atom, donor atom, acceptor molecule, acceptor atom, score
      L1  H     2    40       P1 10175  2.00
      L1  H     8    28       P1  8028  2.00

> <Gold.PLP.Chemscore.Internal.Correction>
0.0907

> <Gold.Rescore>
     Score         DG    S(hbond)    S(metal)    S(lipo)     H(rot)  DE(clash)    DE(int)     intcor
     18.39     -19.40       1.99        0.00      98.16       1.65       0.09       0.92       ----

> <Gold.Chemscore.Fitness>
18.3897

> <Gold.Chemscore.DG>
-19.4033

> <Gold.Chemscore.ZeroCoef>
-5.4800

> <Gold.Chemscore.Hbond>
1.9912

> <Gold.Chemscore.Metal>
0.0000

> <Gold.Chemscore.Lipo>
98.1612

> <Gold.Chemscore.Internal_Hbond>
0.0000

> <Gold.Chemscore.DEClash>
0.0947

> <Gold.Chemscore.DEInternal>
0.9188

> <Gold.Chemscore.Rot>
1.6454

> <Gold.Chemscore.Internal.Correction>
   9.000000E+99

> <Gold.Chemscore.Hbonds>
donor molecule, donor type, donor heavy atom, donor atom, acceptor molecule, acceptor atom, score
      L1  H     2    40       P1 10175  0.29
      L1  H     8    28       P1  8028  1.00

> <Gold.Chemscore.Hbond.Weighted>
-6.6507

> <Gold.Chemscore.Metal.Weighted>
-0.0000

> <Gold.Chemscore.Lipo.Weighted>
-11.4849

> <Gold.Chemscore.Internal_Hbond.Weighted>
0.0000

> <Gold.Chemscore.DEClash.Weighted>
0.0947

> <Gold.Chemscore.DEInternal.Weighted>
0.9188

> <Gold.Chemscore.Rot.Weighted>
4.2122

> <Gold.Chemscore.Internal.Correction.Weighted>
   9.000000E+99

> <Gold.Protein.RotatedTorsions>
[ 6907 6896 6895 6894 ] final   85.25 input  -60.11 | X-H torsion
[ 7974 7965 7964 7962 ] final  -85.40 input  175.53 | X-H torsion
[ 8008 7997 7996 7995 ] final   50.58 input   59.86 | X-H torsion
[ 10167 10162 10161 10158 ] final  -53.56 input  -65.29 | X-H torsion
[ 10718 10713 10712 10709 ] final -145.85 input   66.30 | X-H torsion
[ 10763 10752 10751 10750 ] final  174.76 input  -60.55 | X-H torsion
[ 11005 11000 10999 10996 ] final -141.20 input  -57.11 | X-H torsion

> <Gold.Protein.ActiveResidues>
 VAL166  LYS551  ARG553  GLY616  TRP617  ASP618  TYR619  PRO620  LYS621  CYS622 
 ASP623  PHE694  ASN695  SER759  ASP760  ASP761  ALA762  ILE779  LEU786  VAL792 
 PHE793  MET794  SER795  GLU796  ALA797  LYS798  CYS799  TRP800  GLU811  SER814 

> <Gold.Protein.RotatedAtoms>
  152.5370  134.2615  159.8936 H   0  0  0  0  0  0  0  0  0  0  0  0  # atno 6907 bound_to 6896
  151.2575  133.4312  159.2622 H   0  0  0  0  0  0  0  0  0  0  0  0  # atno 6908 bound_to 6896
  151.0483  134.9670  159.8254 H   0  0  0  0  0  0  0  0  0  0  0  0  # atno 6909 bound_to 6896
  145.4937  140.9551  143.1798 H   0  0  0  0  0  0  0  0  0  0  0  0  # atno 7974 bound_to 7965
  155.4211  140.3446  155.4271 H   0  0  0  0  0  0  0  0  0  0  0  0  # atno 8008 bound_to 7997
  156.1392  140.1537  156.8978 H   0  0  0  0  0  0  0  0  0  0  0  0  # atno 8009 bound_to 7997
  154.4957  140.0828  156.7671 H   0  0  0  0  0  0  0  0  0  0  0  0  # atno 8010 bound_to 7997
  140.6478  143.2546  151.4809 H   0  0  0  0  0  0  0  0  0  0  0  0  # atno 10167 bound_to 10162
  156.3876  130.7869  151.2068 H   0  0  0  0  0  0  0  0  0  0  0  0  # atno 10718 bound_to 10713
  154.4583  135.2767  155.1731 H   0  0  0  0  0  0  0  0  0  0  0  0  # atno 10763 bound_to 10752
  154.3530  135.6146  153.5655 H   0  0  0  0  0  0  0  0  0  0  0  0  # atno 10764 bound_to 10752
  152.9852  135.5816  154.4941 H   0  0  0  0  0  0  0  0  0  0  0  0  # atno 10765 bound_to 10752
  140.8347  134.2474  157.4839 H   0  0  0  0  0  0  0  0  0  0  0  0  # atno 11005 bound_to 11000
  144.7819  139.6508  143.7150 LP  0  0  0  0  0  0  0  0  0  0  0  0  # atno 17320 bound_to 7965
  146.2268  139.5738  142.9582 LP  0  0  0  0  0  0  0  0  0  0  0  0  # atno 17321 bound_to 7965
  139.5690  144.1973  152.1808 LP  0  0  0  0  0  0  0  0  0  0  0  0  # atno 17342 bound_to 10162
  140.1264  144.5328  150.6830 LP  0  0  0  0  0  0  0  0  0  0  0  0  # atno 17343 bound_to 10162
  157.7497  131.0325  150.4230 LP  0  0  0  0  0  0  0  0  0  0  0  0  # atno 17370 bound_to 10713
  156.4486  130.4006  149.6651 LP  0  0  0  0  0  0  0  0  0  0  0  0  # atno 17371 bound_to 10713
  139.8704  134.9604  156.4364 LP  0  0  0  0  0  0  0  0  0  0  0  0  # atno 17394 bound_to 11000
  140.8960  133.7814  155.9625 LP  0  0  0  0  0  0  0  0  0  0  0  0  # atno 17395 bound_to 11000

$$$$
