AV-unprocessed.smi:3310|AV-procd|sdf|12718|dock4
  -GOLD-   2272019 53D 1   1.00000     0.00000
 Structure written by MMmdl.
 45 46  0  0  0  0  0  0  0  0  2 V2000
  151.5082  138.1893  154.5929 C   0  0  0  0  0  0  0  0  0  0  0  0
  149.9998  138.1432  154.3253 C   0  0  0  0  0  0  0  0  0  0  0  0
  149.4130  139.5031  154.1065 C   0  0  0  0  0  0  0  0  0  0  0  0
  150.1096  140.6362  154.2538 N   0  0  0  0  0  0  0  0  0  0  0  0
  149.2204  141.6580  153.9883 N   0  0  0  0  0  0  0  0  0  0  0  0
  148.0721  141.0406  153.7161 C   0  0  0  0  0  0  0  0  0  0  0  0
  148.1197  139.7007  153.7736 N   0  0  0  0  0  0  0  0  0  0  0  0
  147.0464  138.7533  153.5340 C   0  0  0  0  0  0  0  0  0  0  0  0
  146.6367  138.7296  152.0551 C   0  0  0  0  0  0  0  0  0  0  0  0
  145.2365  138.2914  151.8987 N   0  3  0  0  0  0  0  0  0  0  0  0
  144.8829  137.1119  152.7137 C   0  0  0  0  0  0  0  0  0  0  0  0
  145.6583  135.8578  152.2690 C   0  0  2  0  0  0  0  0  0  0  0  0
  145.0763  135.2909  150.9587 C   0  0  0  0  0  0  0  0  0  0  0  0
  145.8216  134.0257  150.4981 C   0  0  0  0  0  0  0  0  0  0  0  0
  145.8536  132.9318  151.5835 C   0  0  2  0  0  0  0  0  0  0  0  0
  144.4915  132.2395  151.7668 C   0  0  0  0  0  0  0  0  0  0  0  0
  146.4106  133.5012  152.9029 C   0  0  0  0  0  0  0  0  0  0  0  0
  145.6634  134.7660  153.3607 C   0  0  0  0  0  0  0  0  0  0  0  0
  151.9079  137.1858  154.7394 H   0  0  0  0  0  0  0  0  0  0  0  0
  151.7324  138.7718  155.4866 H   0  0  0  0  0  0  0  0  0  0  0  0
  152.0420  138.6411  153.7561 H   0  0  0  0  0  0  0  0  0  0  0  0
  149.8060  137.5362  153.4403 H   0  0  0  0  0  0  0  0  0  0  0  0
  149.4865  137.6480  155.1492 H   0  0  0  0  0  0  0  0  0  0  0  0
  147.1707  141.5819  153.4680 H   0  0  0  0  0  0  0  0  0  0  0  0
  147.3638  137.7642  153.8655 H   0  0  0  0  0  0  0  0  0  0  0  0
  146.1968  139.0347  154.1576 H   0  0  0  0  0  0  0  0  0  0  0  0
  146.7485  139.7250  151.6223 H   0  0  0  0  0  0  0  0  0  0  0  0
  147.2884  138.0590  151.4934 H   0  0  0  0  0  0  0  0  0  0  0  0
  144.6259  139.0544  152.1545 H   0  0  0  0  0  0  0  0  0  0  0  0
  145.0781  137.3205  153.7666 H   0  0  0  0  0  0  0  0  0  0  0  0
  143.8101  136.9394  152.6173 H   0  0  0  0  0  0  0  0  0  0  0  0
  146.6911  136.1493  152.0708 H   0  0  0  0  0  0  0  0  0  0  0  0
  144.0167  135.0676  151.0889 H   0  0  0  0  0  0  0  0  0  0  0  0
  145.1317  136.0445  150.1722 H   0  0  0  0  0  0  0  0  0  0  0  0
  145.3687  133.6374  149.5852 H   0  0  0  0  0  0  0  0  0  0  0  0
  146.8452  134.2956  150.2346 H   0  0  0  0  0  0  0  0  0  0  0  0
  146.5454  132.1592  151.2451 H   0  0  0  0  0  0  0  0  0  0  0  0
  143.7203  132.9307  152.1056 H   0  0  0  0  0  0  0  0  0  0  0  0
  144.5583  131.4360  152.5006 H   0  0  0  0  0  0  0  0  0  0  0  0
  144.1487  131.7982  150.8306 H   0  0  0  0  0  0  0  0  0  0  0  0
  146.3748  132.7423  153.6854 H   0  0  0  0  0  0  0  0  0  0  0  0
  147.4655  133.7443  152.7680 H   0  0  0  0  0  0  0  0  0  0  0  0
  146.1331  135.1436  154.2691 H   0  0  0  0  0  0  0  0  0  0  0  0
  144.6395  134.5098  153.6344 H   0  0  0  0  0  0  0  0  0  0  0  0
  145.0804  138.0644  150.9271 H   0  0  0  0  0  0  0  0  0  0  0  0
  1  2  1  0  0  0  0
  1 19  1  0  0  0  0
  1 20  1  0  0  0  0
  1 21  1  0  0  0  0
  2  3  1  0  0  0  0
  2 22  1  0  0  0  0
  2 23  1  0  0  0  0
  3  7  1  0  0  0  0
  3  4  2  0  0  0  0
  4  5  1  0  0  0  0
  5  6  2  0  0  0  0
  6  7  1  0  0  0  0
  6 24  1  0  0  0  0
  7  8  1  0  0  0  0
  8  9  1  0  0  0  0
  8 25  1  0  0  0  0
  8 26  1  0  0  0  0
  9 10  1  0  0  0  0
  9 27  1  0  0  0  0
  9 28  1  0  0  0  0
 10 11  1  0  0  0  0
 10 29  1  0  0  0  0
 10 45  1  0  0  0  0
 11 12  1  0  0  0  0
 11 30  1  0  0  0  0
 11 31  1  0  0  0  0
 12 18  1  0  0  0  0
 12 13  1  0  0  0  0
 12 32  1  0  0  0  0
 13 14  1  0  0  0  0
 13 33  1  0  0  0  0
 13 34  1  0  0  0  0
 14 15  1  0  0  0  0
 14 35  1  0  0  0  0
 14 36  1  0  0  0  0
 15 16  1  0  0  0  0
 15 17  1  0  0  0  0
 15 37  1  0  0  0  0
 16 38  1  0  0  0  0
 16 39  1  0  0  0  0
 16 40  1  0  0  0  0
 17 18  1  0  0  0  0
 17 41  1  0  0  0  0
 17 42  1  0  0  0  0
 18 43  1  0  0  0  0
 18 44  1  0  0  0  0
M  CHG  1  10   1
M  END
> <s_m_source_file>
AV-unprocessed.smi

> <i_m_source_file_index>
3310

> <i_lp_mmshare_version>
43012

> <i_f3d_flags>
0

> <s_epik_input>
W0NIM11bQ0gyXWMxbm5bY0hdbjFbQ0gyXVtDSDJdW05IXVtDSDJdW0NAQEhdMltDSDJdW0NIMl1bQ0BASF0oW0NIM10pW0NIMl1bQ0gyXTI=

> <s_epik_cmdline>
J2VwaWtfcHl0aG9uJywgJy1waCcsICc3LjAnLCAnLXRuJywgJzgnLCAnLW1hJywgJzIwMCcsICctbWV0YWxfYmluZGluZycsICctaW1hZScsICc8aW5maWxlLm1hZT4nLCAnLW9tYWUnLCAnPG91dGZpbGUubWFlPic=

> <r_lp_tautomer_probability>
1

> <r_epik_Ionization_Penalty>
0.00127868

> <r_epik_Ionization_Penalty_Charging>
0.00126792

> <r_epik_Ionization_Penalty_Neutral>
1.07546e-05

> <r_epik_State_Penalty>
-0

> <r_epik_Charging_Adjusted_Penalty>
0.00126792

> <i_epik_Tot_Q>
1

> <i_epik_Tot_abs_Q>
1

> <r_epik_Metal_State_Penalty>
-0

> <b_epik_Metal_Only>
0

> <s_lp_Force_Field>
OPLS_2005

> <r_lp_Energy>
17.5761

> <b_lp_Chiralities_Consistent>
1

> <s_lp_Variant>
AV-unprocessed.smi:3310-2

> <Gold.Version>
5.8.1

> <Gold.Id.Protein>
6NUR|6NUR_protein|mol2

> <Gold.PLP.Fitness>
46.2799

> <Gold.PLP.PLP>
-35.0736

> <Gold.PLP.part.hbond>
-4.7794

> <Gold.PLP.part.metal>
0.0000

> <Gold.PLP.part.buried>
-0.9238

> <Gold.PLP.part.nonpolar>
-30.0918

> <Gold.PLP.part.repulsive>
0.3657

> <Gold.PLP.ligand.clash>
0.0000

> <Gold.PLP.ligand.torsion>
0.4548

> <Gold.PLP.Chemscore.Hbond>
4.0160

> <Gold.PLP.Chemscore.CHOScore>
0.0000

> <Gold.PLP.Chemscore.Metal>
0.0000

> <Gold.Chemscore.Hbonds>
donor molecule, donor type, donor heavy atom, donor atom, acceptor molecule, acceptor atom, score
      L1  H    10    29       P1 10175  2.00
      L1  H    10    45       P1 10171  0.62
      P1  H  7989  7998       L1     4  0.77
      P1  H  8011  8017       L1     5  0.61

> <Gold.PLP.Chemscore.Internal.Correction>
0.0679

> <Gold.Rescore>
     Score         DG    S(hbond)    S(metal)    S(lipo)     H(rot)  DE(clash)    DE(int)     intcor
     15.54     -16.26       2.43        0.00      67.20       2.03       0.32       0.41       ----

> <Gold.Chemscore.Fitness>
15.5366

> <Gold.Chemscore.DG>
-16.2633

> <Gold.Chemscore.ZeroCoef>
-5.4800

> <Gold.Chemscore.Hbond>
2.4302

> <Gold.Chemscore.Metal>
0.0000

> <Gold.Chemscore.Lipo>
67.1964

> <Gold.Chemscore.Internal_Hbond>
0.0000

> <Gold.Chemscore.DEClash>
0.3151

> <Gold.Chemscore.DEInternal>
0.4116

> <Gold.Chemscore.Rot>
2.0295

> <Gold.Chemscore.Internal.Correction>
   9.000000E+99

> <Gold.Chemscore.Hbonds>
donor molecule, donor type, donor heavy atom, donor atom, acceptor molecule, acceptor atom, score
      L1  H    10    29       P1 10175  1.00
      L1  H    10    45       P1 10171  0.64
      P1  H  7989  7998       L1     4  0.59
      P1  H  8011  8017       L1     5  0.19

> <Gold.Chemscore.Hbond.Weighted>
-8.1169

> <Gold.Chemscore.Metal.Weighted>
-0.0000

> <Gold.Chemscore.Lipo.Weighted>
-7.8620

> <Gold.Chemscore.Internal_Hbond.Weighted>
0.0000

> <Gold.Chemscore.DEClash.Weighted>
0.3151

> <Gold.Chemscore.DEInternal.Weighted>
0.4116

> <Gold.Chemscore.Rot.Weighted>
5.1956

> <Gold.Chemscore.Internal.Correction.Weighted>
   9.000000E+99

> <Gold.Protein.RotatedTorsions>
[ 6907 6896 6895 6894 ] final  -52.10 input  -60.11 | X-H torsion
[ 7974 7965 7964 7962 ] final  110.83 input  175.53 | X-H torsion
[ 8008 7997 7996 7995 ] final   -5.15 input   59.86 | X-H torsion
[ 10167 10162 10161 10158 ] final -112.17 input  -65.29 | X-H torsion
[ 10718 10713 10712 10709 ] final    6.71 input   66.30 | X-H torsion
[ 10763 10752 10751 10750 ] final  135.96 input  -60.55 | X-H torsion
[ 11005 11000 10999 10996 ] final  100.55 input  -57.11 | X-H torsion

> <Gold.Protein.ActiveResidues>
 VAL166  LYS551  ARG553  GLY616  TRP617  ASP618  TYR619  PRO620  LYS621  CYS622 
 ASP623  PHE694  ASN695  SER759  ASP760  ASP761  ALA762  ILE779  LEU786  VAL792 
 PHE793  MET794  SER795  GLU796  ALA797  LYS798  CYS799  TRP800  GLU811  SER814 

> <Gold.Protein.RotatedAtoms>
  150.8549  134.7884  159.7037 H   0  0  0  0  0  0  0  0  0  0  0  0  # atno 6907 bound_to 6896
  152.4603  134.5195  159.9788 H   0  0  0  0  0  0  0  0  0  0  0  0  # atno 6908 bound_to 6896
  151.5310  133.3411  159.2954 H   0  0  0  0  0  0  0  0  0  0  0  0  # atno 6909 bound_to 6896
  145.2500  139.2744  143.4072 H   0  0  0  0  0  0  0  0  0  0  0  0  # atno 7974 bound_to 7965
  154.6069  140.2466  155.7719 H   0  0  0  0  0  0  0  0  0  0  0  0  # atno 8008 bound_to 7997
  156.2346  140.2954  156.0230 H   0  0  0  0  0  0  0  0  0  0  0  0  # atno 8009 bound_to 7997
  155.2117  140.0397  157.2925 H   0  0  0  0  0  0  0  0  0  0  0  0  # atno 8010 bound_to 7997
  140.1256  143.4405  152.1662 H   0  0  0  0  0  0  0  0  0  0  0  0  # atno 10167 bound_to 10162
  156.9261  130.5809  149.5648 H   0  0  0  0  0  0  0  0  0  0  0  0  # atno 10718 bound_to 10713
  153.8486  135.3082  155.3431 H   0  0  0  0  0  0  0  0  0  0  0  0  # atno 10763 bound_to 10752
  154.7901  135.4787  154.0036 H   0  0  0  0  0  0  0  0  0  0  0  0  # atno 10764 bound_to 10752
  153.1532  135.6847  153.8944 H   0  0  0  0  0  0  0  0  0  0  0  0  # atno 10765 bound_to 10752
  139.8771  134.9145  156.4772 H   0  0  0  0  0  0  0  0  0  0  0  0  # atno 11005 bound_to 11000
  146.3305  140.2888  142.8614 LP  0  0  0  0  0  0  0  0  0  0  0  0  # atno 17320 bound_to 7965
  144.9512  140.8180  143.5571 LP  0  0  0  0  0  0  0  0  0  0  0  0  # atno 17321 bound_to 7965
  139.5546  144.7363  151.4333 LP  0  0  0  0  0  0  0  0  0  0  0  0  # atno 17342 bound_to 10162
  140.6847  143.8002  150.7169 LP  0  0  0  0  0  0  0  0  0  0  0  0  # atno 17343 bound_to 10162
  156.0468  130.5543  150.8899 LP  0  0  0  0  0  0  0  0  0  0  0  0  # atno 17370 bound_to 10713
  157.5876  131.0945  150.9170 LP  0  0  0  0  0  0  0  0  0  0  0  0  # atno 17371 bound_to 10713
  140.8753  133.7958  155.9408 LP  0  0  0  0  0  0  0  0  0  0  0  0  # atno 17394 bound_to 11000
  140.8910  134.2495  157.5094 LP  0  0  0  0  0  0  0  0  0  0  0  0  # atno 17395 bound_to 11000

$$$$
