AV-unprocessed.smi:690|AV-procd|sdf|3362|dock3
  -GOLD-   22720 0343D 1   1.00000     0.00000
 Structure written by MMmdl.
 46 48  0  0  0  0  0  0  0  0  1 V2000
  144.1369  144.2216  154.9750 C   0  0  0  0  0  0  0  0  0  0  0  0
  144.8799  143.4821  156.0893 C   0  0  0  0  0  0  0  0  0  0  0  0
  145.6925  142.4773  155.5070 O   0  0  0  0  0  0  0  0  0  0  0  0
  146.3614  141.6805  156.4717 C   0  0  2  0  0  0  0  0  0  0  0  0
  147.1785  142.4683  157.5005 C   0  0  0  0  0  0  0  0  0  0  0  0
  148.1968  141.3286  157.3981 C   0  0  2  0  0  0  0  0  0  0  0  0
  149.5794  141.7847  157.4761 N   0  0  0  0  0  0  0  0  0  0  0  0
  150.5928  141.0572  157.9653 C   0  0  0  0  0  0  0  0  0  0  0  0
  150.4495  139.9193  158.4142 O   0  0  0  0  0  0  0  0  0  0  0  0
  151.9703  141.7346  157.9641 C   0  0  0  0  0  0  0  0  0  0  0  0
  152.6108  141.7439  159.2896 N   0  0  0  0  0  0  0  0  0  0  0  0
  152.2386  142.7737  160.1769 C   0  0  0  0  0  0  0  0  0  0  0  0
  152.7599  142.8709  161.4100 C   0  0  0  0  0  0  0  0  0  0  0  0
  153.7290  141.8829  161.8214 C   0  0  0  0  0  0  0  0  0  0  0  0
  154.0905  140.8926  160.9814 C   0  0  0  0  0  0  0  0  0  0  0  0
  153.5223  140.7817  159.6329 C   0  0  0  0  0  0  0  0  0  0  0  0
  153.8465  139.8801  158.8594 O   0  0  0  0  0  0  0  0  0  0  0  0
  147.6902  141.0722  155.9573 C   0  0  0  0  0  0  0  0  0  0  0  0
  148.3788  141.7782  154.7816 C   0  0  0  0  0  0  0  0  0  0  0  0
  147.8747  141.0984  153.5072 C   0  0  0  0  0  0  0  0  0  0  0  0
  147.4520  139.6887  153.9344 C   0  0  0  0  0  0  0  0  0  0  0  0
  147.6417  139.6334  155.4545 C   0  0  0  0  0  0  0  0  0  0  0  0
  143.4944  145.0007  155.3853 H   0  0  0  0  0  0  0  0  0  0  0  0
  143.5100  143.5374  154.4028 H   0  0  0  0  0  0  0  0  0  0  0  0
  144.8363  144.6933  154.2845 H   0  0  0  0  0  0  0  0  0  0  0  0
  145.4922  144.1833  156.6579 H   0  0  0  0  0  0  0  0  0  0  0  0
  144.1638  143.0332  156.7790 H   0  0  0  0  0  0  0  0  0  0  0  0
  145.7140  140.9310  156.9334 H   0  0  0  0  0  0  0  0  0  0  0  0
  147.5450  143.4238  157.1202 H   0  0  0  0  0  0  0  0  0  0  0  0
  146.7057  142.5731  158.4772 H   0  0  0  0  0  0  0  0  0  0  0  0
  147.9611  140.5008  158.0716 H   0  0  0  0  0  0  0  0  0  0  0  0
  149.7777  142.7127  157.1313 H   0  0  0  0  0  0  0  0  0  0  0  0
  152.6210  141.2424  157.2385 H   0  0  0  0  0  0  0  0  0  0  0  0
  151.8454  142.7518  157.5906 H   0  0  0  0  0  0  0  0  0  0  0  0
  151.5039  143.4677  159.7952 H   0  0  0  0  0  0  0  0  0  0  0  0
  152.4596  143.6646  162.0781 H   0  0  0  0  0  0  0  0  0  0  0  0
  154.1651  141.9373  162.8081 H   0  0  0  0  0  0  0  0  0  0  0  0
  154.8161  140.1615  161.3069 H   0  0  0  0  0  0  0  0  0  0  0  0
  148.1939  142.8527  154.7616 H   0  0  0  0  0  0  0  0  0  0  0  0
  149.4601  141.6471  154.8376 H   0  0  0  0  0  0  0  0  0  0  0  0
  147.0123  141.6374  153.1133 H   0  0  0  0  0  0  0  0  0  0  0  0
  148.6366  141.0833  152.7273 H   0  0  0  0  0  0  0  0  0  0  0  0
  146.4063  139.5206  153.6740 H   0  0  0  0  0  0  0  0  0  0  0  0
  148.0415  138.9191  153.4354 H   0  0  0  0  0  0  0  0  0  0  0  0
  148.5827  139.1311  155.6836 H   0  0  0  0  0  0  0  0  0  0  0  0
  146.8524  139.0511  155.9308 H   0  0  0  0  0  0  0  0  0  0  0  0
  1  2  1  0  0  0  0
  1 23  1  0  0  0  0
  1 24  1  0  0  0  0
  1 25  1  0  0  0  0
  2  3  1  0  0  0  0
  2 26  1  0  0  0  0
  2 27  1  0  0  0  0
  3  4  1  0  0  0  0
  4 18  1  0  0  0  0
  4  5  1  0  0  0  0
  4 28  1  0  0  0  0
  5  6  1  0  0  0  0
  5 29  1  0  0  0  0
  5 30  1  0  0  0  0
  6  7  1  0  0  0  0
  6 18  1  0  0  0  0
  6 31  1  0  0  0  0
  7  8  1  0  0  0  0
  7 32  1  0  0  0  0
  8  9  2  0  0  0  0
  8 10  1  0  0  0  0
 10 11  1  0  0  0  0
 10 33  1  0  0  0  0
 10 34  1  0  0  0  0
 11 16  1  0  0  0  0
 11 12  1  0  0  0  0
 12 13  2  0  0  0  0
 12 35  1  0  0  0  0
 13 14  1  0  0  0  0
 13 36  1  0  0  0  0
 14 15  2  0  0  0  0
 14 37  1  0  0  0  0
 15 16  1  0  0  0  0
 15 38  1  0  0  0  0
 16 17  2  0  0  0  0
 18 22  1  0  0  0  0
 18 19  1  0  0  0  0
 19 20  1  0  0  0  0
 19 39  1  0  0  0  0
 19 40  1  0  0  0  0
 20 21  1  0  0  0  0
 20 41  1  0  0  0  0
 20 42  1  0  0  0  0
 21 22  1  0  0  0  0
 21 43  1  0  0  0  0
 21 44  1  0  0  0  0
 22 45  1  0  0  0  0
 22 46  1  0  0  0  0
M  END
> <s_m_source_file>
AV-unprocessed.smi

> <i_m_source_file_index>
690

> <i_lp_mmshare_version>
43012

> <i_f3d_flags>
0

> <s_epik_input>
W0NIMl0xW0NIMl1bQ0gyXVtDSDJdQzEyW0NASF0oT1tDSDJdW0NIM10pW0NIMl1bQ0BIXTJbTkhdQyg9TylbQ0gyXW4zW2NIXVtjSF1bY0hdW2NIXWMzPU8=

> <s_epik_cmdline>
J2VwaWtfcHl0aG9uJywgJy1waCcsICc3LjAnLCAnLXRuJywgJzgnLCAnLW1hJywgJzIwMCcsICctbWV0YWxfYmluZGluZycsICctaW1hZScsICc8aW5maWxlLm1hZT4nLCAnLW9tYWUnLCAnPG91dGZpbGUubWFlPic=

> <r_lp_tautomer_probability>
1

> <r_epik_Ionization_Penalty>
4.11691e-07

> <r_epik_Ionization_Penalty_Charging>
3.92797e-07

> <r_epik_Ionization_Penalty_Neutral>
1.88943e-08

> <r_epik_State_Penalty>
-0

> <r_epik_Charging_Adjusted_Penalty>
3.92797e-07

> <i_epik_Tot_Q>
0

> <i_epik_Tot_abs_Q>
0

> <r_epik_Metal_State_Penalty>
-0

> <b_epik_Metal_Only>
0

> <s_lp_Force_Field>
OPLS_2005

> <r_lp_Energy>
45.5322

> <b_lp_Chiralities_Consistent>
1

> <s_lp_Variant>
AV-unprocessed.smi:690-3

> <Gold.Version>
5.8.1

> <Gold.Id.Protein>
6NUR|6NUR_protein|mol2

> <Gold.PLP.Fitness>
39.6595

> <Gold.PLP.PLP>
-37.8363

> <Gold.PLP.part.hbond>
-1.0000

> <Gold.PLP.part.metal>
0.0000

> <Gold.PLP.part.buried>
-4.0219

> <Gold.PLP.part.nonpolar>
-31.9492

> <Gold.PLP.part.repulsive>
0.2223

> <Gold.PLP.ligand.clash>
0.0000

> <Gold.PLP.ligand.torsion>
0.7779

> <Gold.PLP.Chemscore.Hbond>
1.0000

> <Gold.PLP.Chemscore.CHOScore>
0.0000

> <Gold.PLP.Chemscore.Metal>
0.0000

> <Gold.Chemscore.Hbonds>
donor molecule, donor type, donor heavy atom, donor atom, acceptor molecule, acceptor atom, score
      P1  H  7997  8009       L1    17  1.00

> <Gold.PLP.Chemscore.Internal.Correction>
0.3791

> <Gold.Rescore>
     Score         DG    S(hbond)    S(metal)    S(lipo)     H(rot)  DE(clash)    DE(int)     intcor
     14.02     -14.72       0.99        0.00      87.64       1.69       0.03       0.67       ----

> <Gold.Chemscore.Fitness>
14.0230

> <Gold.Chemscore.DG>
-14.7173

> <Gold.Chemscore.ZeroCoef>
-5.4800

> <Gold.Chemscore.Hbond>
0.9909

> <Gold.Chemscore.Metal>
0.0000

> <Gold.Chemscore.Lipo>
87.6435

> <Gold.Chemscore.Internal_Hbond>
0.0000

> <Gold.Chemscore.DEClash>
0.0263

> <Gold.Chemscore.DEInternal>
0.6680

> <Gold.Chemscore.Rot>
1.6900

> <Gold.Chemscore.Internal.Correction>
   9.000000E+99

> <Gold.Chemscore.Hbonds>
donor molecule, donor type, donor heavy atom, donor atom, acceptor molecule, acceptor atom, score
      P1  H  7997  8009       L1    17  0.98

> <Gold.Chemscore.Hbond.Weighted>
-3.3095

> <Gold.Chemscore.Metal.Weighted>
-0.0000

> <Gold.Chemscore.Lipo.Weighted>
-10.2543

> <Gold.Chemscore.Internal_Hbond.Weighted>
0.0000

> <Gold.Chemscore.DEClash.Weighted>
0.0263

> <Gold.Chemscore.DEInternal.Weighted>
0.6680

> <Gold.Chemscore.Rot.Weighted>
4.3265

> <Gold.Chemscore.Internal.Correction.Weighted>
   9.000000E+99

> <Gold.Protein.RotatedTorsions>
[ 6907 6896 6895 6894 ] final   82.43 input  -60.11 | X-H torsion
[ 7974 7965 7964 7962 ] final  143.21 input  175.53 | X-H torsion
[ 8008 7997 7996 7995 ] final  142.60 input   59.86 | X-H torsion
[ 10167 10162 10161 10158 ] final  -43.30 input  -65.29 | X-H torsion
[ 10718 10713 10712 10709 ] final -126.99 input   66.30 | X-H torsion
[ 10763 10752 10751 10750 ] final -169.44 input  -60.55 | X-H torsion
[ 11005 11000 10999 10996 ] final -111.27 input  -57.11 | X-H torsion

> <Gold.Protein.ActiveResidues>
 VAL166  LYS551  ARG553  GLY616  TRP617  ASP618  TYR619  PRO620  LYS621  CYS622 
 ASP623  PHE694  ASN695  SER759  ASP760  ASP761  ALA762  ILE779  LEU786  VAL792 
 PHE793  MET794  SER795  GLU796  ALA797  LYS798  CYS799  TRP800  GLU811  SER814 

> <Gold.Protein.RotatedAtoms>
  152.5299  134.3050  159.9092 H   0  0  0  0  0  0  0  0  0  0  0  0  # atno 6907 bound_to 6896
  151.3001  133.4120  159.2647 H   0  0  0  0  0  0  0  0  0  0  0  0  # atno 6908 bound_to 6896
  151.0127  134.9425  159.8073 H   0  0  0  0  0  0  0  0  0  0  0  0  # atno 6909 bound_to 6896
  144.8940  139.5517  143.5785 H   0  0  0  0  0  0  0  0  0  0  0  0  # atno 7974 bound_to 7965
  156.2946  140.2284  156.4755 H   0  0  0  0  0  0  0  0  0  0  0  0  # atno 8008 bound_to 7997
  154.7898  140.0455  157.1213 H   0  0  0  0  0  0  0  0  0  0  0  0  # atno 8009 bound_to 7997
  154.9658  140.3060  155.5013 H   0  0  0  0  0  0  0  0  0  0  0  0  # atno 8010 bound_to 7997
  140.6938  143.2990  151.3333 H   0  0  0  0  0  0  0  0  0  0  0  0  # atno 10167 bound_to 10162
  156.1815  130.6735  151.0311 H   0  0  0  0  0  0  0  0  0  0  0  0  # atno 10718 bound_to 10713
  154.6523  135.2913  154.9972 H   0  0  0  0  0  0  0  0  0  0  0  0  # atno 10763 bound_to 10752
  154.1061  135.6569  153.4880 H   0  0  0  0  0  0  0  0  0  0  0  0  # atno 10764 bound_to 10752
  153.0383  135.5254  154.7436 H   0  0  0  0  0  0  0  0  0  0  0  0  # atno 10765 bound_to 10752
  141.0744  133.9326  157.2420 H   0  0  0  0  0  0  0  0  0  0  0  0  # atno 11005 bound_to 11000
  146.3071  139.7616  142.9048 LP  0  0  0  0  0  0  0  0  0  0  0  0  # atno 17320 bound_to 7965
  145.3732  141.0346  143.3219 LP  0  0  0  0  0  0  0  0  0  0  0  0  # atno 17321 bound_to 7965
  139.6371  144.0610  152.2524 LP  0  0  0  0  0  0  0  0  0  0  0  0  # atno 17342 bound_to 10162
  140.0104  144.6228  150.7652 LP  0  0  0  0  0  0  0  0  0  0  0  0  # atno 17343 bound_to 10162
  157.6871  131.0821  150.7212 LP  0  0  0  0  0  0  0  0  0  0  0  0  # atno 17370 bound_to 10713
  156.7269  130.4697  149.5509 LP  0  0  0  0  0  0  0  0  0  0  0  0  # atno 17371 bound_to 10713
  139.9556  135.0166  156.9119 LP  0  0  0  0  0  0  0  0  0  0  0  0  # atno 17394 bound_to 11000
  140.5605  134.0539  155.7397 LP  0  0  0  0  0  0  0  0  0  0  0  0  # atno 17395 bound_to 11000

$$$$
