AV-unprocessed.smi:2667|AV-procd|sdf|10336|dock9
  -GOLD-   2272014353D 1   1.00000     0.00000
 Structure written by MMmdl.
 45 47  0  0  0  0  0  0  0  0  2 V2000
  152.1145  141.7455  158.0969 C   0  0  0  0  0  0  0  0  0  0  0  0
  151.4044  141.9627  156.7514 C   0  0  0  0  0  0  0  0  0  0  0  0
  151.4483  140.7425  155.8184 C   0  0  0  0  0  0  0  0  0  0  0  0
  152.4449  140.0184  155.8047 O   0  0  0  0  0  0  0  0  0  0  0  0
  150.2542  140.4925  154.9598 C   0  0  0  0  0  0  0  0  0  0  0  0
  149.3332  141.5177  154.6405 C   0  0  0  0  0  0  0  0  0  0  0  0
  148.2155  141.2459  153.8287 C   0  0  0  0  0  0  0  0  0  0  0  0
  147.9879  139.9529  153.3193 C   0  0  0  0  0  0  0  0  0  0  0  0
  146.8660  139.7783  152.5399 O   0  0  0  0  0  0  0  0  0  0  0  0
  146.7473  138.5850  151.7774 C   0  0  0  0  0  0  0  0  0  0  0  0
  145.6748  137.6523  152.3735 C   0  0  2  0  0  0  0  0  0  0  0  0
  145.2692  138.1574  153.6287 O   0  0  0  0  0  0  0  0  0  0  0  0
  146.0253  136.1443  152.4291 C   0  0  0  0  0  0  0  0  0  0  0  0
  145.1148  135.2558  151.6886 N   0  0  0  0  0  0  0  0  0  0  0  0
  143.9739  135.5528  151.0073 C   0  0  0  0  0  0  0  0  0  0  0  0
  143.4860  134.3915  150.4912 N   0  3  0  0  0  0  0  0  0  0  0  0
  144.3153  133.3319  150.8636 C   0  0  0  0  0  0  0  0  0  0  0  0
  144.2310  131.9702  150.5894 C   0  0  0  0  0  0  0  0  0  0  0  0
  145.2440  131.1514  151.1301 C   0  0  0  0  0  0  0  0  0  0  0  0
  146.2860  131.6919  151.9111 C   0  0  0  0  0  0  0  0  0  0  0  0
  146.3610  133.0739  152.1831 C   0  0  0  0  0  0  0  0  0  0  0  0
  145.3597  133.8783  151.6403 C   0  0  0  0  0  0  0  0  0  0  0  0
  148.9098  138.9254  153.6342 C   0  0  0  0  0  0  0  0  0  0  0  0
  150.0284  139.1955  154.4459 C   0  0  0  0  0  0  0  0  0  0  0  0
  152.0443  142.6405  158.7153 H   0  0  0  0  0  0  0  0  0  0  0  0
  153.1733  141.5243  157.9575 H   0  0  0  0  0  0  0  0  0  0  0  0
  151.6665  140.9233  158.6563 H   0  0  0  0  0  0  0  0  0  0  0  0
  150.3617  142.2227  156.9345 H   0  0  0  0  0  0  0  0  0  0  0  0
  151.8601  142.8098  156.2380 H   0  0  0  0  0  0  0  0  0  0  0  0
  149.4621  142.5248  155.0074 H   0  0  0  0  0  0  0  0  0  0  0  0
  147.5222  142.0407  153.5947 H   0  0  0  0  0  0  0  0  0  0  0  0
  146.4990  138.8233  150.7419 H   0  0  0  0  0  0  0  0  0  0  0  0
  147.7026  138.0577  151.7754 H   0  0  0  0  0  0  0  0  0  0  0  0
  144.7957  137.7430  151.7346 H   0  0  0  0  0  0  0  0  0  0  0  0
  144.7029  138.8998  153.4850 H   0  0  0  0  0  0  0  0  0  0  0  0
  147.0416  135.9714  152.0736 H   0  0  0  0  0  0  0  0  0  0  0  0
  146.0130  135.8119  153.4680 H   0  0  0  0  0  0  0  0  0  0  0  0
  143.5436  136.5364  150.8835 H   0  0  0  0  0  0  0  0  0  0  0  0
  143.4322  131.5528  149.9941 H   0  0  0  0  0  0  0  0  0  0  0  0
  145.2205  130.0873  150.9434 H   0  0  0  0  0  0  0  0  0  0  0  0
  147.0439  131.0333  152.3094 H   0  0  0  0  0  0  0  0  0  0  0  0
  147.1636  133.4768  152.7822 H   0  0  0  0  0  0  0  0  0  0  0  0
  148.7827  137.9194  153.2648 H   0  0  0  0  0  0  0  0  0  0  0  0
  150.7127  138.3894  154.6685 H   0  0  0  0  0  0  0  0  0  0  0  0
  142.6465  134.3295  149.9296 H   0  0  0  0  0  0  0  0  0  0  0  0
  1  2  1  0  0  0  0
  1 25  1  0  0  0  0
  1 26  1  0  0  0  0
  1 27  1  0  0  0  0
  2  3  1  0  0  0  0
  2 28  1  0  0  0  0
  2 29  1  0  0  0  0
  3  4  2  0  0  0  0
  3  5  1  0  0  0  0
  5 24  1  0  0  0  0
  5  6  2  0  0  0  0
  6  7  1  0  0  0  0
  6 30  1  0  0  0  0
  7  8  2  0  0  0  0
  7 31  1  0  0  0  0
  8  9  1  0  0  0  0
  8 23  1  0  0  0  0
  9 10  1  0  0  0  0
 10 11  1  0  0  0  0
 10 32  1  0  0  0  0
 10 33  1  0  0  0  0
 11 12  1  0  0  0  0
 11 13  1  0  0  0  0
 11 34  1  0  0  0  0
 12 35  1  0  0  0  0
 13 14  1  0  0  0  0
 13 36  1  0  0  0  0
 13 37  1  0  0  0  0
 14 22  1  0  0  0  0
 14 15  1  0  0  0  0
 15 16  2  0  0  0  0
 15 38  1  0  0  0  0
 16 17  1  0  0  0  0
 16 45  1  0  0  0  0
 17 22  2  0  0  0  0
 17 18  1  0  0  0  0
 18 19  2  0  0  0  0
 18 39  1  0  0  0  0
 19 20  1  0  0  0  0
 19 40  1  0  0  0  0
 20 21  2  0  0  0  0
 20 41  1  0  0  0  0
 21 22  1  0  0  0  0
 21 42  1  0  0  0  0
 23 24  2  0  0  0  0
 23 43  1  0  0  0  0
 24 44  1  0  0  0  0
M  CHG  1  16   1
M  END
> <s_m_source_file>
AV-unprocessed.smi

> <i_m_source_file_index>
2667

> <i_lp_mmshare_version>
43012

> <i_f3d_flags>
0

> <s_epik_input>
W0NIM11bQ0gyXUMoPU8pYzFbY0hdW2NIXWMoW2NIXVtjSF0xKU9bQ0gyXVtDQEhdKFtPSF0pW0NIMl1uKFtjSF1uMiljKGMyMylbY0hdW2NIXVtjSF1bY0hdMw==

> <s_epik_cmdline>
J2VwaWtfcHl0aG9uJywgJy1waCcsICc3LjAnLCAnLXRuJywgJzgnLCAnLW1hJywgJzIwMCcsICctbWV0YWxfYmluZGluZycsICctaW1hZScsICc8aW5maWxlLm1hZT4nLCAnLW9tYWUnLCAnPG91dGZpbGUubWFlPic=

> <r_lp_tautomer_probability>
0.9999

> <r_epik_Ionization_Penalty>
1.40272

> <r_epik_Ionization_Penalty_Charging>
1.40272

> <r_epik_Ionization_Penalty_Neutral>
2.3993e-06

> <r_epik_State_Penalty>
1.48501

> <r_epik_Charging_Adjusted_Penalty>
2.88772

> <i_epik_Tot_Q>
1

> <i_epik_Tot_abs_Q>
1

> <r_epik_Metal_State_Penalty>
5.5274

> <b_epik_Metal_Only>
0

> <s_lp_Force_Field>
OPLS_2005

> <r_lp_Energy>
30.2491

> <b_lp_Chiralities_Consistent>
1

> <s_lp_Variant>
AV-unprocessed.smi:2667-3

> <Gold.Version>
5.8.1

> <Gold.Id.Protein>
6NUR|6NUR_protein|mol2

> <Gold.PLP.Fitness>
55.3334

> <Gold.PLP.PLP>
-45.9027

> <Gold.PLP.part.hbond>
-2.7924

> <Gold.PLP.part.metal>
0.0000

> <Gold.PLP.part.buried>
3.1128

> <Gold.PLP.part.nonpolar>
-46.2008

> <Gold.PLP.part.repulsive>
0.5300

> <Gold.PLP.ligand.clash>
0.0000

> <Gold.PLP.ligand.torsion>
2.4390

> <Gold.PLP.Chemscore.Hbond>
3.7153

> <Gold.PLP.Chemscore.CHOScore>
1.0000

> <Gold.PLP.Chemscore.Metal>
0.0000

> <Gold.Chemscore.Hbonds>
donor molecule, donor type, donor heavy atom, donor atom, acceptor molecule, acceptor atom, score
      L1  H    12    35       P1 10175  0.76
      L1  H    16    45       P1 10186  2.00
      P1  H  7997  8009       L1     4  1.00
      L1  C    15    38       P1 10171  1.00

> <Gold.PLP.Chemscore.Internal.Correction>
0.1630

> <Gold.Rescore>
     Score         DG    S(hbond)    S(metal)    S(lipo)     H(rot)  DE(clash)    DE(int)     intcor
     16.79     -22.32       2.72        0.00     122.90       2.59       3.45       2.09       ----

> <Gold.Chemscore.Fitness>
16.7891

> <Gold.Chemscore.DG>
-22.3227

> <Gold.Chemscore.ZeroCoef>
-5.4800

> <Gold.Chemscore.Hbond>
2.7206

> <Gold.Chemscore.Metal>
0.0000

> <Gold.Chemscore.Lipo>
122.9011

> <Gold.Chemscore.Internal_Hbond>
0.0000

> <Gold.Chemscore.DEClash>
3.4482

> <Gold.Chemscore.DEInternal>
2.0854

> <Gold.Chemscore.Rot>
2.5873

> <Gold.Chemscore.Internal.Correction>
   9.000000E+99

> <Gold.Chemscore.Hbonds>
donor molecule, donor type, donor heavy atom, donor atom, acceptor molecule, acceptor atom, score
      L1  H    12    35       P1 10175  0.76
      L1  H    16    45       P1 10186  0.95
      P1  H  7997  8009       L1     4  0.97

> <Gold.Chemscore.Hbond.Weighted>
-9.0868

> <Gold.Chemscore.Metal.Weighted>
-0.0000

> <Gold.Chemscore.Lipo.Weighted>
-14.3794

> <Gold.Chemscore.Internal_Hbond.Weighted>
0.0000

> <Gold.Chemscore.DEClash.Weighted>
3.4482

> <Gold.Chemscore.DEInternal.Weighted>
2.0854

> <Gold.Chemscore.Rot.Weighted>
6.6235

> <Gold.Chemscore.Internal.Correction.Weighted>
   9.000000E+99

> <Gold.Protein.RotatedTorsions>
[ 6907 6896 6895 6894 ] final -179.33 input  -60.11 | X-H torsion
[ 7974 7965 7964 7962 ] final  129.50 input  175.53 | X-H torsion
[ 8008 7997 7996 7995 ] final -164.89 input   59.86 | X-H torsion
[ 10167 10162 10161 10158 ] final   93.29 input  -65.29 | X-H torsion
[ 10718 10713 10712 10709 ] final  -84.78 input   66.30 | X-H torsion
[ 10763 10752 10751 10750 ] final  -11.98 input  -60.55 | X-H torsion
[ 11005 11000 10999 10996 ] final -116.12 input  -57.11 | X-H torsion

> <Gold.Protein.ActiveResidues>
 VAL166  LYS551  ARG553  GLY616  TRP617  ASP618  TYR619  PRO620  LYS621  CYS622 
 ASP623  PHE694  ASN695  SER759  ASP760  ASP761  ALA762  ILE779  LEU786  VAL792 
 PHE793  MET794  SER795  GLU796  ALA797  LYS798  CYS799  TRP800  GLU811  SER814 

> <Gold.Protein.RotatedAtoms>
  151.6517  133.3320  159.3153 H   0  0  0  0  0  0  0  0  0  0  0  0  # atno 6907 bound_to 6896
  150.7957  134.7018  159.6564 H   0  0  0  0  0  0  0  0  0  0  0  0  # atno 6908 bound_to 6896
  152.4043  134.6237  160.0109 H   0  0  0  0  0  0  0  0  0  0  0  0  # atno 6909 bound_to 6896
  145.0280  139.4072  143.5164 H   0  0  0  0  0  0  0  0  0  0  0  0  # atno 7974 bound_to 7965
  155.8420  140.0950  157.1729 H   0  0  0  0  0  0  0  0  0  0  0  0  # atno 8008 bound_to 7997
  154.3982  140.1399  156.3801 H   0  0  0  0  0  0  0  0  0  0  0  0  # atno 8009 bound_to 7997
  155.8054  140.3451  155.5429 H   0  0  0  0  0  0  0  0  0  0  0  0  # atno 8010 bound_to 7997
  139.8194  144.6738  150.9538 H   0  0  0  0  0  0  0  0  0  0  0  0  # atno 10167 bound_to 10162
  156.0003  130.4709  150.4463 H   0  0  0  0  0  0  0  0  0  0  0  0  # atno 10718 bound_to 10713
  153.4918  135.7017  153.5880 H   0  0  0  0  0  0  0  0  0  0  0  0  # atno 10763 bound_to 10752
  153.4049  135.3863  155.2012 H   0  0  0  0  0  0  0  0  0  0  0  0  # atno 10764 bound_to 10752
  154.8716  135.3890  154.4379 H   0  0  0  0  0  0  0  0  0  0  0  0  # atno 10765 bound_to 10752
  141.0443  133.9787  157.2943 H   0  0  0  0  0  0  0  0  0  0  0  0  # atno 11005 bound_to 11000
  146.3495  139.9814  142.8695 LP  0  0  0  0  0  0  0  0  0  0  0  0  # atno 17320 bound_to 7965
  145.1808  140.9766  143.4267 LP  0  0  0  0  0  0  0  0  0  0  0  0  # atno 17321 bound_to 7965
  140.7814  143.4107  151.0998 LP  0  0  0  0  0  0  0  0  0  0  0  0  # atno 17342 bound_to 10162
  139.7768  143.8413  152.3131 LP  0  0  0  0  0  0  0  0  0  0  0  0  # atno 17343 bound_to 10162
  157.2499  131.0544  151.2385 LP  0  0  0  0  0  0  0  0  0  0  0  0  # atno 17370 bound_to 10713
  157.3538  130.7096  149.6457 LP  0  0  0  0  0  0  0  0  0  0  0  0  # atno 17371 bound_to 10713
  139.9300  135.0200  156.8366 LP  0  0  0  0  0  0  0  0  0  0  0  0  # atno 17394 bound_to 11000
  140.6176  134.0024  155.7604 LP  0  0  0  0  0  0  0  0  0  0  0  0  # atno 17395 bound_to 11000

$$$$
