AV-unprocessed.smi:2594|AV-procd|sdf|10167|dock2
  -GOLD-   2272014183D 1   1.00000     0.00000
 Structure written by MMmdl.
 29 30  0  0  0  0  0  0  0  0  1 V2000
  150.0420  141.2525  158.3960 O   0  0  0  0  0  0  0  0  0  0  0  0
  151.0362  141.3881  157.6806 C   0  0  0  0  0  0  0  0  0  0  0  0
  150.9292  141.2898  156.1529 C   0  0  0  0  0  0  0  0  0  0  0  0
  151.3187  139.9800  155.6285 N   0  0  0  0  0  0  0  0  0  0  0  0
  150.7575  139.5613  154.4623 N   0  0  0  0  0  0  0  0  0  0  0  0
  151.1800  138.3984  154.1291 C   0  0  0  0  0  0  0  0  0  0  0  0
  152.3506  137.6503  155.2233 S   0  0  0  0  0  0  0  0  0  0  0  0
  152.2259  139.1158  156.2352 C   0  0  0  0  0  0  0  0  0  0  0  0
  152.8574  139.2768  157.2779 O   0  0  0  0  0  0  0  0  0  0  0  0
  152.2592  141.6480  158.1665 N   0  0  0  0  0  0  0  0  0  0  0  0
  152.5854  141.8022  159.5794 C   0  0  0  0  0  0  0  0  0  0  0  0
  152.4640  143.2667  160.0318 C   0  0  1  0  0  0  0  0  0  0  0  0
  152.7213  144.2782  158.9178 C   0  0  0  0  0  0  0  0  0  0  0  0
  152.0037  145.4981  159.4488 C   0  0  0  0  0  0  0  0  0  0  0  0
  150.7722  144.8812  160.1082 C   0  0  0  0  0  0  0  0  0  0  0  0
  151.1380  143.5511  160.4704 O   0  0  0  0  0  0  0  0  0  0  0  0
  149.9031  141.5212  155.8619 H   0  0  0  0  0  0  0  0  0  0  0  0
  151.5581  142.0555  155.6955 H   0  0  0  0  0  0  0  0  0  0  0  0
  150.8861  137.8367  153.2427 H   0  0  0  0  0  0  0  0  0  0  0  0
  153.0186  141.7556  157.5096 H   0  0  0  0  0  0  0  0  0  0  0  0
  151.9345  141.1655  160.1809 H   0  0  0  0  0  0  0  0  0  0  0  0
  153.6027  141.4433  159.7392 H   0  0  0  0  0  0  0  0  0  0  0  0
  153.1467  143.4718  160.8582 H   0  0  0  0  0  0  0  0  0  0  0  0
  153.7825  144.4506  158.7367 H   0  0  0  0  0  0  0  0  0  0  0  0
  152.2614  143.9513  157.9838 H   0  0  0  0  0  0  0  0  0  0  0  0
  152.6210  145.9956  160.1977 H   0  0  0  0  0  0  0  0  0  0  0  0
  151.7557  146.2237  158.6737 H   0  0  0  0  0  0  0  0  0  0  0  0
  150.4420  145.4516  160.9768 H   0  0  0  0  0  0  0  0  0  0  0  0
  149.9428  144.8305  159.4018 H   0  0  0  0  0  0  0  0  0  0  0  0
  1  2  2  0  0  0  0
  2  3  1  0  0  0  0
  2 10  1  0  0  0  0
  3  4  1  0  0  0  0
  3 17  1  0  0  0  0
  3 18  1  0  0  0  0
  4  8  1  0  0  0  0
  4  5  1  0  0  0  0
  5  6  2  0  0  0  0
  6  7  1  0  0  0  0
  6 19  1  0  0  0  0
  7  8  1  0  0  0  0
  8  9  2  0  0  0  0
 10 11  1  0  0  0  0
 10 20  1  0  0  0  0
 11 12  1  0  0  0  0
 11 21  1  0  0  0  0
 11 22  1  0  0  0  0
 12 16  1  0  0  0  0
 12 13  1  0  0  0  0
 12 23  1  0  0  0  0
 13 14  1  0  0  0  0
 13 24  1  0  0  0  0
 13 25  1  0  0  0  0
 14 15  1  0  0  0  0
 14 26  1  0  0  0  0
 14 27  1  0  0  0  0
 15 16  1  0  0  0  0
 15 28  1  0  0  0  0
 15 29  1  0  0  0  0
M  END
> <s_m_source_file>
AV-unprocessed.smi

> <i_m_source_file_index>
2594

> <i_lp_mmshare_version>
43012

> <i_f3d_flags>
0

> <s_epik_input>
TzFbQ0gyXVtDSDJdW0NIMl1bQ0BIXTFbQ0gyXVtOSF1DKD1PKVtDSDJdbjJuW2NIXXNjMj1P

> <s_epik_cmdline>
J2VwaWtfcHl0aG9uJywgJy1waCcsICc3LjAnLCAnLXRuJywgJzgnLCAnLW1hJywgJzIwMCcsICctbWV0YWxfYmluZGluZycsICctaW1hZScsICc8aW5maWxlLm1hZT4nLCAnLW9tYWUnLCAnPG91dGZpbGUubWFlPic=

> <r_lp_tautomer_probability>
1

> <r_epik_Ionization_Penalty>
2.49222e-07

> <r_epik_Ionization_Penalty_Charging>
1.4085e-08

> <r_epik_Ionization_Penalty_Neutral>
2.35137e-07

> <r_epik_State_Penalty>
-0

> <r_epik_Charging_Adjusted_Penalty>
1.4085e-08

> <i_epik_Tot_Q>
0

> <i_epik_Tot_abs_Q>
0

> <r_epik_Metal_State_Penalty>
-0

> <b_epik_Metal_Only>
0

> <s_lp_Force_Field>
OPLS_2005

> <r_lp_Energy>
18.288

> <b_lp_Chiralities_Consistent>
1

> <s_lp_Variant>
AV-unprocessed.smi:2594-2

> <Gold.Version>
5.8.1

> <Gold.Id.Protein>
6NUR|6NUR_protein|mol2

> <Gold.PLP.Fitness>
41.6478

> <Gold.PLP.PLP>
-35.8502

> <Gold.PLP.part.hbond>
-3.0000

> <Gold.PLP.part.metal>
0.0000

> <Gold.PLP.part.buried>
-3.1989

> <Gold.PLP.part.nonpolar>
-30.2539

> <Gold.PLP.part.repulsive>
0.3277

> <Gold.PLP.ligand.clash>
0.0000

> <Gold.PLP.ligand.torsion>
1.2408

> <Gold.PLP.Chemscore.Hbond>
1.7000

> <Gold.PLP.Chemscore.CHOScore>
1.0498

> <Gold.PLP.Chemscore.Metal>
0.0000

> <Gold.Chemscore.Hbonds>
donor molecule, donor type, donor heavy atom, donor atom, acceptor molecule, acceptor atom, score
      P1  H  7989  7998       L1     5  0.60
      P1  H  7997  8010       L1     9  1.00
      L1  C     6    19       P1  7948  0.12
      L1  C     6    19       P1  7949  0.88

> <Gold.PLP.Chemscore.Internal.Correction>
0.0299

> <Gold.Rescore>
     Score         DG    S(hbond)    S(metal)    S(lipo)     H(rot)  DE(clash)    DE(int)     intcor
     10.92     -13.40       1.00        0.00      82.91       2.00       0.02       2.46       ----

> <Gold.Chemscore.Fitness>
10.9216

> <Gold.Chemscore.DG>
-13.4019

> <Gold.Chemscore.ZeroCoef>
-5.4800

> <Gold.Chemscore.Hbond>
0.9968

> <Gold.Chemscore.Metal>
0.0000

> <Gold.Chemscore.Lipo>
82.9073

> <Gold.Chemscore.Internal_Hbond>
0.0000

> <Gold.Chemscore.DEClash>
0.0237

> <Gold.Chemscore.DEInternal>
2.4565

> <Gold.Chemscore.Rot>
1.9952

> <Gold.Chemscore.Internal.Correction>
   9.000000E+99

> <Gold.Chemscore.Hbonds>
donor molecule, donor type, donor heavy atom, donor atom, acceptor molecule, acceptor atom, score
      P1  H  7989  7998       L1     5  0.03
      P1  H  7997  8010       L1     9  0.55

> <Gold.Chemscore.Hbond.Weighted>
-3.3294

> <Gold.Chemscore.Metal.Weighted>
-0.0000

> <Gold.Chemscore.Lipo.Weighted>
-9.7002

> <Gold.Chemscore.Internal_Hbond.Weighted>
0.0000

> <Gold.Chemscore.DEClash.Weighted>
0.0237

> <Gold.Chemscore.DEInternal.Weighted>
2.4565

> <Gold.Chemscore.Rot.Weighted>
5.1077

> <Gold.Chemscore.Internal.Correction.Weighted>
   9.000000E+99

> <Gold.Protein.RotatedTorsions>
[ 6907 6896 6895 6894 ] final   89.28 input  -60.11 | X-H torsion
[ 7974 7965 7964 7962 ] final   85.12 input  175.53 | X-H torsion
[ 8008 7997 7996 7995 ] final   49.30 input   59.86 | X-H torsion
[ 10167 10162 10161 10158 ] final   29.17 input  -65.29 | X-H torsion
[ 10718 10713 10712 10709 ] final  131.23 input   66.30 | X-H torsion
[ 10763 10752 10751 10750 ] final -116.06 input  -60.55 | X-H torsion
[ 11005 11000 10999 10996 ] final   11.78 input  -57.11 | X-H torsion

> <Gold.Protein.ActiveResidues>
 VAL166  LYS551  ARG553  GLY616  TRP617  ASP618  TYR619  PRO620  LYS621  CYS622 
 ASP623  PHE694  ASN695  SER759  ASP760  ASP761  ALA762  ILE779  LEU786  VAL792 
 PHE793  MET794  SER795  GLU796  ALA797  LYS798  CYS799  TRP800  GLU811  SER814 

> <Gold.Protein.RotatedAtoms>
  152.5434  134.1990  159.8704 H   0  0  0  0  0  0  0  0  0  0  0  0  # atno 6907 bound_to 6896
  151.1980  133.4620  159.2603 H   0  0  0  0  0  0  0  0  0  0  0  0  # atno 6908 bound_to 6896
  151.1017  134.9988  159.8507 H   0  0  0  0  0  0  0  0  0  0  0  0  # atno 6909 bound_to 6896
  145.5897  139.2336  143.2306 H   0  0  0  0  0  0  0  0  0  0  0  0  # atno 7974 bound_to 7965
  155.4000  140.3437  155.4256 H   0  0  0  0  0  0  0  0  0  0  0  0  # atno 8008 bound_to 7997
  156.1509  140.1570  156.8803 H   0  0  0  0  0  0  0  0  0  0  0  0  # atno 8009 bound_to 7997
  154.5052  140.0804  156.7860 H   0  0  0  0  0  0  0  0  0  0  0  0  # atno 8010 bound_to 7997
  140.4789  144.0647  150.6259 H   0  0  0  0  0  0  0  0  0  0  0  0  # atno 10167 bound_to 10162
  157.4987  131.1093  150.9457 H   0  0  0  0  0  0  0  0  0  0  0  0  # atno 10718 bound_to 10713
  154.8505  135.4359  154.1762 H   0  0  0  0  0  0  0  0  0  0  0  0  # atno 10763 bound_to 10752
  153.2863  135.6958  153.7342 H   0  0  0  0  0  0  0  0  0  0  0  0  # atno 10764 bound_to 10752
  153.6526  135.3448  155.3079 H   0  0  0  0  0  0  0  0  0  0  0  0  # atno 10765 bound_to 10752
  140.4994  134.0761  155.7790 H   0  0  0  0  0  0  0  0  0  0  0  0  # atno 11005 bound_to 11000
  146.1656  140.6723  142.9257 LP  0  0  0  0  0  0  0  0  0  0  0  0  # atno 17320 bound_to 7965
  144.7357  140.4800  143.6906 LP  0  0  0  0  0  0  0  0  0  0  0  0  # atno 17321 bound_to 7965
  140.3883  143.2766  152.0090 LP  0  0  0  0  0  0  0  0  0  0  0  0  # atno 17342 bound_to 10162
  139.4830  144.6098  151.7454 LP  0  0  0  0  0  0  0  0  0  0  0  0  # atno 17343 bound_to 10162
  157.0134  130.5646  149.5323 LP  0  0  0  0  0  0  0  0  0  0  0  0  # atno 17370 bound_to 10713
  156.0216  130.5311  150.8291 LP  0  0  0  0  0  0  0  0  0  0  0  0  # atno 17371 bound_to 10713
  141.1443  133.9083  157.2252 LP  0  0  0  0  0  0  0  0  0  0  0  0  # atno 17394 bound_to 11000
  139.9722  135.0125  156.9541 LP  0  0  0  0  0  0  0  0  0  0  0  0  # atno 17395 bound_to 11000

$$$$
