AV-unprocessed.smi:2021|AV-procd|sdf|8186|dock7
  -GOLD-   2272010443D 1   1.00000     0.00000
 Structure written by MMmdl.
 40 41  0  0  0  0  0  0  0  0  2 V2000
  152.1475  144.4785  157.8772 C   0  0  0  0  0  0  0  0  0  0  0  0
  151.8022  144.0836  159.3233 C   0  0  0  0  0  0  0  0  0  0  0  0
  151.5234  145.3440  160.1569 C   0  0  0  0  0  0  0  0  0  0  0  0
  152.9183  143.2287  159.9680 C   0  0  0  0  0  0  0  0  0  0  0  0
  152.8374  141.7896  159.7145 N   0  0  0  0  0  0  0  0  0  0  0  0
  154.1509  141.1665  159.8321 C   0  0  0  0  0  0  0  0  0  0  0  0
  154.0950  139.6528  159.5709 C   0  0  0  0  0  0  0  0  0  0  0  0
  153.5357  139.4176  158.2838 O   0  0  0  0  0  0  0  0  0  0  0  0
  152.2231  139.9561  158.1405 C   0  0  2  0  0  0  0  0  0  0  0  0
  151.7126  139.6385  156.7280 C   0  0  0  0  0  0  0  0  0  0  0  0
  151.8796  138.2236  156.4228 N   0  0  0  0  0  0  0  0  0  0  0  0
  151.2345  137.5640  155.4519 C   0  0  0  0  0  0  0  0  0  0  0  0
  150.4297  138.1625  154.7343 O   0  0  0  0  0  0  0  0  0  0  0  0
  151.5614  136.2539  155.3712 N   0  5  0  0  0  0  0  0  0  0  0  0
  150.8425  135.3396  156.0433 C   0  0  0  0  0  0  0  0  0  0  0  0
  150.5433  135.4758  157.3453 N   0  0  0  0  0  0  0  0  0  0  0  0
  149.7973  134.4183  157.8480 N   0  0  0  0  0  0  0  0  0  0  0  0
  149.5594  133.5027  156.9093 C   0  0  0  0  0  0  0  0  0  0  0  0
  150.2275  133.8468  155.3277 S   0  0  0  0  0  0  0  0  0  0  0  0
  152.2786  141.4748  158.4017 C   0  0  0  0  0  0  0  0  0  0  0  0
  153.0420  145.1011  157.8409 H   0  0  0  0  0  0  0  0  0  0  0  0
  151.3339  145.0429  157.4209 H   0  0  0  0  0  0  0  0  0  0  0  0
  152.3296  143.6070  157.2498 H   0  0  0  0  0  0  0  0  0  0  0  0
  150.8771  143.5056  159.3096 H   0  0  0  0  0  0  0  0  0  0  0  0
  152.4080  145.9776  160.2270 H   0  0  0  0  0  0  0  0  0  0  0  0
  151.2171  145.0842  161.1706 H   0  0  0  0  0  0  0  0  0  0  0  0
  150.7222  145.9381  159.7168 H   0  0  0  0  0  0  0  0  0  0  0  0
  153.8984  143.6064  159.6729 H   0  0  0  0  0  0  0  0  0  0  0  0
  152.8721  143.3766  161.0480 H   0  0  0  0  0  0  0  0  0  0  0  0
  154.8434  141.6271  159.1258 H   0  0  0  0  0  0  0  0  0  0  0  0
  154.5580  141.3440  160.8282 H   0  0  0  0  0  0  0  0  0  0  0  0
  155.0963  139.2237  159.6085 H   0  0  0  0  0  0  0  0  0  0  0  0
  153.4996  139.1487  160.3338 H   0  0  0  0  0  0  0  0  0  0  0  0
  151.5621  139.4892  158.8735 H   0  0  0  0  0  0  0  0  0  0  0  0
  150.6541  139.8919  156.6510 H   0  0  0  0  0  0  0  0  0  0  0  0
  152.2434  140.2408  155.9890 H   0  0  0  0  0  0  0  0  0  0  0  0
  152.5348  137.7047  156.9891 H   0  0  0  0  0  0  0  0  0  0  0  0
  148.9904  132.6173  157.1505 H   0  0  0  0  0  0  0  0  0  0  0  0
  151.2678  141.8733  158.3223 H   0  0  0  0  0  0  0  0  0  0  0  0
  152.8705  141.9582  157.6228 H   0  0  0  0  0  0  0  0  0  0  0  0
  1  2  1  0  0  0  0
  1 21  1  0  0  0  0
  1 22  1  0  0  0  0
  1 23  1  0  0  0  0
  2  3  1  0  0  0  0
  2  4  1  0  0  0  0
  2 24  1  0  0  0  0
  3 25  1  0  0  0  0
  3 26  1  0  0  0  0
  3 27  1  0  0  0  0
  4  5  1  0  0  0  0
  4 28  1  0  0  0  0
  4 29  1  0  0  0  0
  5 20  1  0  0  0  0
  5  6  1  0  0  0  0
  6  7  1  0  0  0  0
  6 30  1  0  0  0  0
  6 31  1  0  0  0  0
  7  8  1  0  0  0  0
  7 32  1  0  0  0  0
  7 33  1  0  0  0  0
  8  9  1  0  0  0  0
  9 10  1  0  0  0  0
  9 20  1  0  0  0  0
  9 34  1  0  0  0  0
 10 11  1  0  0  0  0
 10 35  1  0  0  0  0
 10 36  1  0  0  0  0
 11 12  1  0  0  0  0
 11 37  1  0  0  0  0
 12 13  2  0  0  0  0
 12 14  1  0  0  0  0
 14 15  1  0  0  0  0
 15 19  1  0  0  0  0
 15 16  2  0  0  0  0
 16 17  1  0  0  0  0
 17 18  2  0  0  0  0
 18 19  1  0  0  0  0
 18 38  1  0  0  0  0
 20 39  1  0  0  0  0
 20 40  1  0  0  0  0
M  CHG  1  14  -1
M  END
> <s_m_source_file>
AV-unprocessed.smi

> <i_m_source_file_index>
2021

> <i_lp_mmshare_version>
43012

> <i_f3d_flags>
0

> <s_epik_input>
W0NIM11bQ0hdKFtDSDNdKVtDSDJdTjFbQ0gyXVtDSDJdT1tDQEhdKFtDSDJdMSlbQ0gyXVtOSF1DKD1PKVtOSF1jMm5uW2NIXXMy

> <s_epik_cmdline>
J2VwaWtfcHl0aG9uJywgJy1waCcsICc3LjAnLCAnLXRuJywgJzgnLCAnLW1hJywgJzIwMCcsICctbWV0YWxfYmluZGluZycsICctaW1hZScsICc8aW5maWxlLm1hZT4nLCAnLW9tYWUnLCAnPG91dGZpbGUubWFlPic=

> <r_lp_tautomer_probability>
1

> <r_epik_Ionization_Penalty>
4.44864

> <r_epik_Ionization_Penalty_Charging>
3.27383

> <r_epik_Ionization_Penalty_Neutral>
1.17482

> <r_epik_State_Penalty>
4.44168

> <r_epik_Charging_Adjusted_Penalty>
7.7155

> <i_epik_Tot_Q>
-1

> <i_epik_Tot_abs_Q>
1

> <r_epik_Metal_State_Penalty>
1.66628

> <b_epik_Metal_Only>
1

> <s_lp_Force_Field>
OPLS_2005

> <r_lp_Energy>
22.4741

> <b_lp_Chiralities_Consistent>
1

> <s_lp_Variant>
AV-unprocessed.smi:2021-12

> <Gold.Version>
5.8.1

> <Gold.Id.Protein>
6NUR|6NUR_protein|mol2

> <Gold.PLP.Fitness>
45.8707

> <Gold.PLP.PLP>
-38.2059

> <Gold.PLP.part.hbond>
-3.8029

> <Gold.PLP.part.metal>
0.0000

> <Gold.PLP.part.buried>
-6.4116

> <Gold.PLP.part.nonpolar>
-28.9515

> <Gold.PLP.part.repulsive>
0.3601

> <Gold.PLP.ligand.clash>
0.0000

> <Gold.PLP.ligand.torsion>
1.9690

> <Gold.PLP.Chemscore.Hbond>
3.8480

> <Gold.PLP.Chemscore.CHOScore>
0.0000

> <Gold.PLP.Chemscore.Metal>
0.0000

> <Gold.Chemscore.Hbonds>
donor molecule, donor type, donor heavy atom, donor atom, acceptor molecule, acceptor atom, score
      P1  H  6896  6909       L1    17  0.85
      P1  H  7997  8008       L1     8  1.00
      P1  H 10752 10763       L1    14  2.00

> <Gold.PLP.Chemscore.Internal.Correction>
0.0589

> <Gold.Rescore>
     Score         DG    S(hbond)    S(metal)    S(lipo)     H(rot)  DE(clash)    DE(int)     intcor
     16.25     -18.29       1.91        0.00      94.49       1.81       0.03       2.02       ----

> <Gold.Chemscore.Fitness>
16.2485

> <Gold.Chemscore.DG>
-18.2923

> <Gold.Chemscore.ZeroCoef>
-5.4800

> <Gold.Chemscore.Hbond>
1.9101

> <Gold.Chemscore.Metal>
0.0000

> <Gold.Chemscore.Lipo>
94.4866

> <Gold.Chemscore.Internal_Hbond>
0.0000

> <Gold.Chemscore.DEClash>
0.0270

> <Gold.Chemscore.DEInternal>
2.0168

> <Gold.Chemscore.Rot>
1.8056

> <Gold.Chemscore.Internal.Correction>
   9.000000E+99

> <Gold.Chemscore.Hbonds>
donor molecule, donor type, donor heavy atom, donor atom, acceptor molecule, acceptor atom, score
      P1  H  6896  6909       L1    17  0.34
      P1  H  7997  8008       L1     8  0.58
      P1  H 10752 10763       L1    14  0.65

> <Gold.Chemscore.Hbond.Weighted>
-6.3797

> <Gold.Chemscore.Metal.Weighted>
-0.0000

> <Gold.Chemscore.Lipo.Weighted>
-11.0549

> <Gold.Chemscore.Internal_Hbond.Weighted>
0.0000

> <Gold.Chemscore.DEClash.Weighted>
0.0270

> <Gold.Chemscore.DEInternal.Weighted>
2.0168

> <Gold.Chemscore.Rot.Weighted>
4.6224

> <Gold.Chemscore.Internal.Correction.Weighted>
   9.000000E+99

> <Gold.Protein.RotatedTorsions>
[ 6907 6896 6895 6894 ] final    0.45 input  -60.11 | X-H torsion
[ 7974 7965 7964 7962 ] final  123.90 input  175.53 | X-H torsion
[ 8008 7997 7996 7995 ] final  -84.86 input   59.86 | X-H torsion
[ 10167 10162 10161 10158 ] final  -71.79 input  -65.29 | X-H torsion
[ 10718 10713 10712 10709 ] final -107.58 input   66.30 | X-H torsion
[ 10763 10752 10751 10750 ] final   79.05 input  -60.55 | X-H torsion
[ 11005 11000 10999 10996 ] final -144.15 input  -57.11 | X-H torsion

> <Gold.Protein.ActiveResidues>
 VAL166  LYS551  ARG553  GLY616  TRP617  ASP618  TYR619  PRO620  LYS621  CYS622 
 ASP623  PHE694  ASN695  SER759  ASP760  ASP761  ALA762  ILE779  LEU786  VAL792 
 PHE793  MET794  SER795  GLU796  ALA797  LYS798  CYS799  TRP800  GLU811  SER814 

> <Gold.Protein.RotatedAtoms>
  151.5766  135.1060  160.0007 H   0  0  0  0  0  0  0  0  0  0  0  0  # atno 6907 bound_to 6896
  152.4375  133.7382  159.6637 H   0  0  0  0  0  0  0  0  0  0  0  0  # atno 6908 bound_to 6896
  150.8274  133.8078  159.3136 H   0  0  0  0  0  0  0  0  0  0  0  0  # atno 6909 bound_to 6896
  145.0906  139.3590  143.4863 H   0  0  0  0  0  0  0  0  0  0  0  0  # atno 7974 bound_to 7965
  154.6344  140.0599  156.9771 H   0  0  0  0  0  0  0  0  0  0  0  0  # atno 8008 bound_to 7997
  155.1614  140.3283  155.4392 H   0  0  0  0  0  0  0  0  0  0  0  0  # atno 8009 bound_to 7997
  156.2500  140.1930  156.6721 H   0  0  0  0  0  0  0  0  0  0  0  0  # atno 8010 bound_to 7997
  140.5245  143.2328  151.7372 H   0  0  0  0  0  0  0  0  0  0  0  0  # atno 10167 bound_to 10162
  156.0443  130.5670  150.7841 H   0  0  0  0  0  0  0  0  0  0  0  0  # atno 10718 bound_to 10713
  153.0922  135.4854  154.8711 H   0  0  0  0  0  0  0  0  0  0  0  0  # atno 10763 bound_to 10752
  154.7282  135.3054  154.8937 H   0  0  0  0  0  0  0  0  0  0  0  0  # atno 10764 bound_to 10752
  153.9581  135.6815  153.4798 H   0  0  0  0  0  0  0  0  0  0  0  0  # atno 10765 bound_to 10752
  140.8053  134.2808  157.4962 H   0  0  0  0  0  0  0  0  0  0  0  0  # atno 11005 bound_to 11000
  146.3531  140.0738  142.8621 LP  0  0  0  0  0  0  0  0  0  0  0  0  # atno 17320 bound_to 7965
  145.1071  140.9382  143.4678 LP  0  0  0  0  0  0  0  0  0  0  0  0  # atno 17321 bound_to 7965
  139.4934  144.4206  151.9982 LP  0  0  0  0  0  0  0  0  0  0  0  0  # atno 17342 bound_to 10162
  140.3305  144.3322  150.5988 LP  0  0  0  0  0  0  0  0  0  0  0  0  # atno 17343 bound_to 10162
  157.5300  131.0936  150.9967 LP  0  0  0  0  0  0  0  0  0  0  0  0  # atno 17370 bound_to 10713
  157.0276  130.5698  149.5339 LP  0  0  0  0  0  0  0  0  0  0  0  0  # atno 17371 bound_to 10713
  139.8718  134.9453  156.3904 LP  0  0  0  0  0  0  0  0  0  0  0  0  # atno 17394 bound_to 11000
  140.9253  133.7616  155.9957 LP  0  0  0  0  0  0  0  0  0  0  0  0  # atno 17395 bound_to 11000

$$$$
