AV-unprocessed.smi:1870|AV-procd|sdf|7595|dock2
  -GOLD-   22720 9313D 1   1.00000     0.00000
 Structure written by MMmdl.
 48 50  0  0  0  0  0  0  0  0  2 V2000
  147.2465  131.0622  160.3846 C   0  0  0  0  0  0  0  0  0  0  0  0
  147.6263  132.4480  159.9365 C   0  0  0  0  0  0  0  0  0  0  0  0
  148.1534  132.5537  158.7609 N   0  0  0  0  0  0  0  0  0  0  0  0
  148.5354  133.7796  158.2512 N   0  0  0  0  0  0  0  0  0  0  0  0
  149.1259  133.7101  156.9091 C   0  0  0  0  0  0  0  0  0  0  0  0
  148.0925  134.0266  155.8063 C   0  0  2  0  0  0  0  0  0  0  0  0
  147.1709  132.9562  155.7268 O   0  0  0  0  0  0  0  0  0  0  0  0
  148.7642  134.1601  154.4237 C   0  0  0  0  0  0  0  0  0  0  0  0
  147.7889  134.3780  153.3232 N   0  3  2  0  0  0  0  0  0  0  0  0
  146.6723  135.2663  153.7240 C   0  0  0  0  0  0  0  0  0  0  0  0
  145.8904  135.7252  152.4866 C   0  0  0  0  0  0  0  0  0  0  0  0
  145.5041  134.5663  151.5864 C   0  0  0  0  0  0  0  0  0  0  0  0
  144.4840  134.7332  150.6271 C   0  0  0  0  0  0  0  0  0  0  0  0
  144.1462  133.6749  149.7624 C   0  0  0  0  0  0  0  0  0  0  0  0
  144.8298  132.4477  149.8517 C   0  0  0  0  0  0  0  0  0  0  0  0
  145.8494  132.2772  150.8080 C   0  0  0  0  0  0  0  0  0  0  0  0
  146.1917  133.3323  151.6795 C   0  0  0  0  0  0  0  0  0  0  0  0
  147.2814  133.1145  152.7230 C   0  0  0  0  0  0  0  0  0  0  0  0
  148.4064  134.9679  158.9074 C   0  0  0  0  0  0  0  0  0  0  0  0
  148.7666  136.0388  158.4167 O   0  0  0  0  0  0  0  0  0  0  0  0
  147.8071  134.8412  160.2379 C   0  0  0  0  0  0  0  0  0  0  0  0
  147.6458  136.0636  160.9574 C   0  0  0  0  0  0  0  0  0  0  0  0
  147.4945  137.0529  161.5393 N   0  0  0  0  0  0  0  0  0  0  0  0
  147.4301  133.6432  160.7506 C   0  0  0  0  0  0  0  0  0  0  0  0
  146.8045  133.4593  162.1266 C   0  0  0  0  0  0  0  0  0  0  0  0
  146.1966  131.0220  160.6747 H   0  0  0  0  0  0  0  0  0  0  0  0
  147.8470  130.7555  161.2413 H   0  0  0  0  0  0  0  0  0  0  0  0
  147.3962  130.3238  159.5954 H   0  0  0  0  0  0  0  0  0  0  0  0
  149.9303  134.4471  156.8672 H   0  0  0  0  0  0  0  0  0  0  0  0
  149.6201  132.7543  156.7236 H   0  0  0  0  0  0  0  0  0  0  0  0
  147.5596  134.9427  156.0590 H   0  0  0  0  0  0  0  0  0  0  0  0
  146.6703  133.0432  154.9296 H   0  0  0  0  0  0  0  0  0  0  0  0
  149.4836  134.9805  154.4260 H   0  0  0  0  0  0  0  0  0  0  0  0
  149.3403  133.2533  154.2321 H   0  0  0  0  0  0  0  0  0  0  0  0
  146.0175  134.7343  154.4163 H   0  0  0  0  0  0  0  0  0  0  0  0
  147.0462  136.1447  154.2510 H   0  0  0  0  0  0  0  0  0  0  0  0
  144.9950  136.2676  152.7927 H   0  0  0  0  0  0  0  0  0  0  0  0
  146.4955  136.4195  151.9023 H   0  0  0  0  0  0  0  0  0  0  0  0
  143.9618  135.6756  150.5474 H   0  0  0  0  0  0  0  0  0  0  0  0
  143.3654  133.8058  149.0277 H   0  0  0  0  0  0  0  0  0  0  0  0
  144.5714  131.6363  149.1871 H   0  0  0  0  0  0  0  0  0  0  0  0
  146.3654  131.3304  150.8732 H   0  0  0  0  0  0  0  0  0  0  0  0
  148.0995  132.5701  152.2528 H   0  0  0  0  0  0  0  0  0  0  0  0
  146.8750  132.4723  153.5058 H   0  0  0  0  0  0  0  0  0  0  0  0
  146.8098  134.3812  162.7073 H   0  0  0  0  0  0  0  0  0  0  0  0
  147.3488  132.7112  162.7037 H   0  0  0  0  0  0  0  0  0  0  0  0
  145.7683  133.1337  162.0317 H   0  0  0  0  0  0  0  0  0  0  0  0
  148.2883  134.8710  152.5963 H   0  0  0  0  0  0  0  0  0  0  0  0
  1  2  1  0  0  0  0
  1 26  1  0  0  0  0
  1 27  1  0  0  0  0
  1 28  1  0  0  0  0
  2 24  1  0  0  0  0
  2  3  2  0  0  0  0
  3  4  1  0  0  0  0
  4  5  1  0  0  0  0
  4 19  1  0  0  0  0
  5  6  1  0  0  0  0
  5 29  1  0  0  0  0
  5 30  1  0  0  0  0
  6  7  1  0  0  0  0
  6  8  1  0  0  0  0
  6 31  1  0  0  0  0
  7 32  1  0  0  0  0
  8  9  1  0  0  0  0
  8 33  1  0  0  0  0
  8 34  1  0  0  0  0
  9 18  1  0  0  0  0
  9 10  1  0  0  0  0
  9 48  1  0  0  0  0
 10 11  1  0  0  0  0
 10 35  1  0  0  0  0
 10 36  1  0  0  0  0
 11 12  1  0  0  0  0
 11 37  1  0  0  0  0
 11 38  1  0  0  0  0
 12 17  2  0  0  0  0
 12 13  1  0  0  0  0
 13 14  2  0  0  0  0
 13 39  1  0  0  0  0
 14 15  1  0  0  0  0
 14 40  1  0  0  0  0
 15 16  2  0  0  0  0
 15 41  1  0  0  0  0
 16 17  1  0  0  0  0
 16 42  1  0  0  0  0
 17 18  1  0  0  0  0
 18 43  1  0  0  0  0
 18 44  1  0  0  0  0
 19 20  2  0  0  0  0
 19 21  1  0  0  0  0
 21 22  1  0  0  0  0
 21 24  2  0  0  0  0
 22 23  3  0  0  0  0
 24 25  1  0  0  0  0
 25 45  1  0  0  0  0
 25 46  1  0  0  0  0
 25 47  1  0  0  0  0
M  CHG  1   9   1
M  END
> <s_m_source_file>
AV-unprocessed.smi

> <i_m_source_file_index>
1870

> <i_lp_mmshare_version>
43012

> <i_f3d_flags>
0

> <s_epik_input>
TiNDYyhjMVtDSDNdKWMoPU8pbihuYzFbQ0gzXSlbQ0gyXVtDQEhdKFtPSF0pW0NIMl1OKFtDSDJdW0NIMl0yKVtDSDJdYyhjMjMpW2NIXVtjSF1bY0hdW2NIXTM=

> <s_epik_cmdline>
J2VwaWtfcHl0aG9uJywgJy1waCcsICc3LjAnLCAnLXRuJywgJzgnLCAnLW1hJywgJzIwMCcsICctbWV0YWxfYmluZGluZycsICctaW1hZScsICc8aW5maWxlLm1hZT4nLCAnLW9tYWUnLCAnPG91dGZpbGUubWFlPic=

> <r_epik_Ionization_Penalty>
0.0122865

> <r_epik_Ionization_Penalty_Charging>
0.0122864

> <r_epik_Ionization_Penalty_Neutral>
1.48087e-07

> <r_epik_State_Penalty>
0.00950248

> <r_epik_Charging_Adjusted_Penalty>
0.0217889

> <i_epik_Tot_Q>
1

> <i_epik_Tot_abs_Q>
1

> <r_epik_Metal_State_Penalty>
0.00950248

> <b_epik_Metal_Only>
0

> <s_lp_Force_Field>
OPLS_2005

> <r_lp_Energy>
38.404

> <b_lp_Chiralities_Consistent>
1

> <s_lp_Variant>
AV-unprocessed.smi:1870-3

> <Gold.Version>
5.8.1

> <Gold.Id.Protein>
6NUR|6NUR_protein|mol2

> <Gold.PLP.Fitness>
48.2515

> <Gold.PLP.PLP>
-38.0827

> <Gold.PLP.part.hbond>
-3.0000

> <Gold.PLP.part.metal>
0.0000

> <Gold.PLP.part.buried>
-4.4797

> <Gold.PLP.part.nonpolar>
-30.7287

> <Gold.PLP.part.repulsive>
0.0000

> <Gold.PLP.ligand.clash>
0.0000

> <Gold.PLP.ligand.torsion>
0.6620

> <Gold.PLP.Chemscore.Hbond>
3.8240

> <Gold.PLP.Chemscore.CHOScore>
0.0000

> <Gold.PLP.Chemscore.Metal>
0.0000

> <Gold.Chemscore.Hbonds>
donor molecule, donor type, donor heavy atom, donor atom, acceptor molecule, acceptor atom, score
      L1  H     9    48       P1  7948  2.00
      P1  H  6931  6943       L1    23  1.00
      P1  H  6934  6947       L1    23  0.76

> <Gold.PLP.Chemscore.Internal.Correction>
0.0208

> <Gold.Rescore>
     Score         DG    S(hbond)    S(metal)    S(lipo)     H(rot)  DE(clash)    DE(int)     intcor
     18.66     -19.51       2.58        0.00      93.48       2.16       0.03       0.82       ----

> <Gold.Chemscore.Fitness>
18.6607

> <Gold.Chemscore.DG>
-19.5113

> <Gold.Chemscore.ZeroCoef>
-5.4800

> <Gold.Chemscore.Hbond>
2.5841

> <Gold.Chemscore.Metal>
0.0000

> <Gold.Chemscore.Lipo>
93.4809

> <Gold.Chemscore.Internal_Hbond>
0.0000

> <Gold.Chemscore.DEClash>
0.0290

> <Gold.Chemscore.DEInternal>
0.8215

> <Gold.Chemscore.Rot>
2.1628

> <Gold.Chemscore.Internal.Correction>
   9.000000E+99

> <Gold.Chemscore.Hbonds>
donor molecule, donor type, donor heavy atom, donor atom, acceptor molecule, acceptor atom, score
      L1  H     9    48       P1  7948  0.54
      P1  H  6931  6943       L1    23  0.90
      P1  H  6934  6947       L1    23  0.73

> <Gold.Chemscore.Hbond.Weighted>
-8.6307

> <Gold.Chemscore.Metal.Weighted>
-0.0000

> <Gold.Chemscore.Lipo.Weighted>
-10.9373

> <Gold.Chemscore.Internal_Hbond.Weighted>
0.0000

> <Gold.Chemscore.DEClash.Weighted>
0.0290

> <Gold.Chemscore.DEInternal.Weighted>
0.8215

> <Gold.Chemscore.Rot.Weighted>
5.5367

> <Gold.Chemscore.Internal.Correction.Weighted>
   9.000000E+99

> <Gold.Protein.RotatedTorsions>
[ 6907 6896 6895 6894 ] final   38.25 input  -60.11 | X-H torsion
[ 7974 7965 7964 7962 ] final  140.17 input  175.53 | X-H torsion
[ 8008 7997 7996 7995 ] final   96.43 input   59.86 | X-H torsion
[ 10167 10162 10161 10158 ] final  140.67 input  -65.29 | X-H torsion
[ 10718 10713 10712 10709 ] final  -73.16 input   66.30 | X-H torsion
[ 10763 10752 10751 10750 ] final -118.70 input  -60.55 | X-H torsion
[ 11005 11000 10999 10996 ] final  109.19 input  -57.11 | X-H torsion

> <Gold.Protein.ActiveResidues>
 VAL166  LYS551  ARG553  GLY616  TRP617  ASP618  TYR619  PRO620  LYS621  CYS622 
 ASP623  PHE694  ASN695  SER759  ASP760  ASP761  ALA762  ILE779  LEU786  VAL792 
 PHE793  MET794  SER795  GLU796  ALA797  LYS798  CYS799  TRP800  GLU811  SER814 

> <Gold.Protein.RotatedAtoms>
  152.1540  134.8965  160.0545 H   0  0  0  0  0  0  0  0  0  0  0  0  # atno 6907 bound_to 6896
  151.9986  133.3812  159.4181 H   0  0  0  0  0  0  0  0  0  0  0  0  # atno 6908 bound_to 6896
  150.6879  134.3781  159.5065 H   0  0  0  0  0  0  0  0  0  0  0  0  # atno 6909 bound_to 6896
  144.9211  139.5166  143.5663 H   0  0  0  0  0  0  0  0  0  0  0  0  # atno 7974 bound_to 7965
  156.0796  140.3272  155.7677 H   0  0  0  0  0  0  0  0  0  0  0  0  # atno 8008 bound_to 7997
  155.5175  140.0582  157.2930 H   0  0  0  0  0  0  0  0  0  0  0  0  # atno 8009 bound_to 7997
  154.4574  140.1950  156.0356 H   0  0  0  0  0  0  0  0  0  0  0  0  # atno 8010 bound_to 7997
  139.5042  144.6220  151.6029 H   0  0  0  0  0  0  0  0  0  0  0  0  # atno 10167 bound_to 10162
  156.0291  130.4388  150.2700 H   0  0  0  0  0  0  0  0  0  0  0  0  # atno 10718 bound_to 10713
  154.8595  135.4264  154.2180 H   0  0  0  0  0  0  0  0  0  0  0  0  # atno 10763 bound_to 10752
  153.3191  135.6981  153.7052 H   0  0  0  0  0  0  0  0  0  0  0  0  # atno 10764 bound_to 10752
  153.6114  135.3518  155.2953 H   0  0  0  0  0  0  0  0  0  0  0  0  # atno 10765 bound_to 10752
  139.8857  134.9451  156.6088 H   0  0  0  0  0  0  0  0  0  0  0  0  # atno 11005 bound_to 11000
  146.3205  139.8091  142.8949 LP  0  0  0  0  0  0  0  0  0  0  0  0  # atno 17320 bound_to 7965
  145.3294  141.0263  143.3455 LP  0  0  0  0  0  0  0  0  0  0  0  0  # atno 17321 bound_to 7965
  140.5925  143.9755  150.6333 LP  0  0  0  0  0  0  0  0  0  0  0  0  # atno 17342 bound_to 10162
  140.2940  143.3305  152.1035 LP  0  0  0  0  0  0  0  0  0  0  0  0  # atno 17343 bound_to 10162
  157.0803  131.0141  151.3159 LP  0  0  0  0  0  0  0  0  0  0  0  0  # atno 17370 bound_to 10713
  157.4932  130.7835  149.7529 LP  0  0  0  0  0  0  0  0  0  0  0  0  # atno 17371 bound_to 10713
  140.7827  133.8646  155.8581 LP  0  0  0  0  0  0  0  0  0  0  0  0  # atno 17394 bound_to 11000
  140.9746  134.1486  157.4547 LP  0  0  0  0  0  0  0  0  0  0  0  0  # atno 17395 bound_to 11000

$$$$
