AV-unprocessed.smi:2201|AV-procd|sdf|8928|dock2
  -GOLD-   2272012143D 1   1.00000     0.00000
 Structure written by MMmdl.
 30 30  0  0  0  0  0  0  0  0  2 V2000
  147.7334  133.4481  161.0826 C   0  0  0  0  0  0  0  0  0  0  0  0
  147.0992  134.8561  160.9950 C   0  0  0  0  0  0  0  0  0  0  0  0
  145.9382  134.7955  159.9755 C   0  0  0  0  0  0  0  0  0  0  0  0
  146.5492  135.2236  162.3921 C   0  0  0  0  0  0  0  0  0  0  0  0
  148.1611  135.8988  160.5446 C   0  0  0  0  0  0  0  0  0  0  0  0
  148.3776  136.8937  161.2410 O   0  0  0  0  0  0  0  0  0  0  0  0
  148.7553  135.5712  159.3685 N   0  5  0  0  0  0  0  0  0  0  0  0
  148.9388  136.5133  158.4311 C   0  0  0  0  0  0  0  0  0  0  0  0
  149.7009  136.3259  157.3482 N   0  0  0  0  0  0  0  0  0  0  0  0
  149.7600  137.4395  156.5049 C   0  0  0  0  0  0  0  0  0  0  0  0
  150.5870  137.3951  155.2505 C   0  0  0  0  0  0  0  0  0  0  0  0
  150.4778  138.7010  154.4550 C   0  0  0  0  0  0  0  0  0  0  0  0
  149.6974  138.7058  153.3697 N   0  0  0  0  0  0  0  0  0  0  0  0
  151.1125  139.6941  154.8047 O   0  0  0  0  0  0  0  0  0  0  0  0
  149.0016  138.4909  156.9522 C   0  0  0  0  0  0  0  0  0  0  0  0
  148.2049  138.1176  158.4535 S   0  0  0  0  0  0  0  0  0  0  0  0
  147.0015  132.7040  161.3980 H   0  0  0  0  0  0  0  0  0  0  0  0
  148.5519  133.4183  161.8032 H   0  0  0  0  0  0  0  0  0  0  0  0
  148.1267  133.1231  160.1182 H   0  0  0  0  0  0  0  0  0  0  0  0
  146.3041  134.6047  158.9657 H   0  0  0  0  0  0  0  0  0  0  0  0
  145.3663  135.7239  159.9488 H   0  0  0  0  0  0  0  0  0  0  0  0
  145.2371  133.9984  160.2244 H   0  0  0  0  0  0  0  0  0  0  0  0
  145.8682  134.4563  162.7613 H   0  0  0  0  0  0  0  0  0  0  0  0
  145.9940  136.1623  162.3809 H   0  0  0  0  0  0  0  0  0  0  0  0
  147.3530  135.3247  163.1225 H   0  0  0  0  0  0  0  0  0  0  0  0
  151.6340  137.2092  155.4942 H   0  0  0  0  0  0  0  0  0  0  0  0
  150.2707  136.5712  154.6101 H   0  0  0  0  0  0  0  0  0  0  0  0
  149.6251  139.5403  152.8057 H   0  0  0  0  0  0  0  0  0  0  0  0
  149.2060  137.8655  153.1023 H   0  0  0  0  0  0  0  0  0  0  0  0
  148.8655  139.4587  156.4939 H   0  0  0  0  0  0  0  0  0  0  0  0
  1  2  1  0  0  0  0
  1 17  1  0  0  0  0
  1 18  1  0  0  0  0
  1 19  1  0  0  0  0
  2  3  1  0  0  0  0
  2  4  1  0  0  0  0
  2  5  1  0  0  0  0
  3 20  1  0  0  0  0
  3 21  1  0  0  0  0
  3 22  1  0  0  0  0
  4 23  1  0  0  0  0
  4 24  1  0  0  0  0
  4 25  1  0  0  0  0
  5  6  2  0  0  0  0
  5  7  1  0  0  0  0
  7  8  1  0  0  0  0
  8 16  1  0  0  0  0
  8  9  2  0  0  0  0
  9 10  1  0  0  0  0
 10 11  1  0  0  0  0
 10 15  2  0  0  0  0
 11 12  1  0  0  0  0
 11 26  1  0  0  0  0
 11 27  1  0  0  0  0
 12 13  1  0  0  0  0
 12 14  2  0  0  0  0
 13 28  1  0  0  0  0
 13 29  1  0  0  0  0
 15 16  1  0  0  0  0
 15 30  1  0  0  0  0
M  CHG  1   7  -1
M  END
> <s_m_source_file>
AV-unprocessed.smi

> <i_m_source_file_index>
2201

> <i_lp_mmshare_version>
43012

> <i_f3d_flags>
0

> <s_epik_input>
W0NIM11DKFtDSDNdKShbQ0gzXSlDKD1PKVtOSF1jMW5jKFtjSF1zMSlbQ0gyXUMoPU8pW05IMl0=

> <s_epik_cmdline>
J2VwaWtfcHl0aG9uJywgJy1waCcsICc3LjAnLCAnLXRuJywgJzgnLCAnLW1hJywgJzIwMCcsICctbWV0YWxfYmluZGluZycsICctaW1hZScsICc8aW5maWxlLm1hZT4nLCAnLW9tYWUnLCAnPG91dGZpbGUubWFlPic=

> <r_lp_tautomer_probability>
1

> <r_epik_Ionization_Penalty>
5.6718

> <r_epik_Ionization_Penalty_Charging>
5.12968

> <r_epik_Ionization_Penalty_Neutral>
0.54212

> <r_epik_State_Penalty>
5.12958

> <r_epik_Charging_Adjusted_Penalty>
10.2593

> <i_epik_Tot_Q>
-1

> <i_epik_Tot_abs_Q>
1

> <r_epik_Metal_State_Penalty>
1.2135

> <b_epik_Metal_Only>
1

> <s_lp_Force_Field>
OPLS_2005

> <r_lp_Energy>
3.19374

> <b_lp_Chiralities_Consistent>
1

> <s_lp_Variant>
AV-unprocessed.smi:2201-2

> <Gold.Version>
5.8.1

> <Gold.Id.Protein>
6NUR|6NUR_protein|mol2

> <Gold.PLP.Fitness>
40.4221

> <Gold.PLP.PLP>
-23.3001

> <Gold.PLP.part.hbond>
-6.0068

> <Gold.PLP.part.metal>
0.0000

> <Gold.PLP.part.buried>
-4.4447

> <Gold.PLP.part.nonpolar>
-13.2831

> <Gold.PLP.part.repulsive>
0.1614

> <Gold.PLP.ligand.clash>
0.0000

> <Gold.PLP.ligand.torsion>
0.6841

> <Gold.PLP.Chemscore.Hbond>
6.1482

> <Gold.PLP.Chemscore.CHOScore>
0.0000

> <Gold.PLP.Chemscore.Metal>
0.0000

> <Gold.Chemscore.Hbonds>
donor molecule, donor type, donor heavy atom, donor atom, acceptor molecule, acceptor atom, score
      L1  H    13    28       P1  7957  0.80
      L1  H    13    29       P1  7948  0.98
      P1  H  6896  6909       L1     7  1.37
      P1  H  6931  6943       L1     6  1.00
      P1  H  7989  7998       L1    14  1.00

> <Gold.PLP.Chemscore.Internal.Correction>
0.0457

> <Gold.Rescore>
     Score         DG    S(hbond)    S(metal)    S(lipo)     H(rot)  DE(clash)    DE(int)     intcor
     19.31     -20.10       4.56        0.00      35.95       1.88       0.03       0.76       ----

> <Gold.Chemscore.Fitness>
19.3093

> <Gold.Chemscore.DG>
-20.0974

> <Gold.Chemscore.ZeroCoef>
-5.4800

> <Gold.Chemscore.Hbond>
4.5584

> <Gold.Chemscore.Metal>
0.0000

> <Gold.Chemscore.Lipo>
35.9453

> <Gold.Chemscore.Internal_Hbond>
0.0000

> <Gold.Chemscore.DEClash>
0.0270

> <Gold.Chemscore.DEInternal>
0.7611

> <Gold.Chemscore.Rot>
1.8802

> <Gold.Chemscore.Internal.Correction>
   9.000000E+99

> <Gold.Chemscore.Hbonds>
donor molecule, donor type, donor heavy atom, donor atom, acceptor molecule, acceptor atom, score
      L1  H    13    28       P1  7957  0.80
      L1  H    13    29       P1  7948  0.86
      P1  H  6896  6909       L1     7  0.30
      P1  H  6931  6943       L1     6  0.99
      P1  H  6934  6947       L1     6  0.03
      P1  H  7989  7998       L1    14  0.94

> <Gold.Chemscore.Hbond.Weighted>
-15.2251

> <Gold.Chemscore.Metal.Weighted>
-0.0000

> <Gold.Chemscore.Lipo.Weighted>
-4.2056

> <Gold.Chemscore.Internal_Hbond.Weighted>
0.0000

> <Gold.Chemscore.DEClash.Weighted>
0.0270

> <Gold.Chemscore.DEInternal.Weighted>
0.7611

> <Gold.Chemscore.Rot.Weighted>
4.8132

> <Gold.Chemscore.Internal.Correction.Weighted>
   9.000000E+99

> <Gold.Protein.RotatedTorsions>
[ 6907 6896 6895 6894 ] final   54.40 input  -60.11 | X-H torsion
[ 7974 7965 7964 7962 ] final   11.97 input  175.53 | X-H torsion
[ 8008 7997 7996 7995 ] final   38.19 input   59.86 | X-H torsion
[ 10167 10162 10161 10158 ] final   47.07 input  -65.29 | X-H torsion
[ 10718 10713 10712 10709 ] final  -70.27 input   66.30 | X-H torsion
[ 10763 10752 10751 10750 ] final   80.88 input  -60.55 | X-H torsion
[ 11005 11000 10999 10996 ] final   74.47 input  -57.11 | X-H torsion

> <Gold.Protein.ActiveResidues>
 VAL166  LYS551  ARG553  GLY616  TRP617  ASP618  TYR619  PRO620  LYS621  CYS622 
 ASP623  PHE694  ASN695  SER759  ASP760  ASP761  ALA762  ILE779  LEU786  VAL792 
 PHE793  MET794  SER795  GLU796  ALA797  LYS798  CYS799  TRP800  GLU811  SER814 

> <Gold.Protein.RotatedAtoms>
  152.3435  134.7103  160.0256 H   0  0  0  0  0  0  0  0  0  0  0  0  # atno 6907 bound_to 6896
  151.7480  133.3320  159.3392 H   0  0  0  0  0  0  0  0  0  0  0  0  # atno 6908 bound_to 6896
  150.7494  134.6151  159.6151 H   0  0  0  0  0  0  0  0  0  0  0  0  # atno 6909 bound_to 6896
  146.2361  139.9406  142.8483 H   0  0  0  0  0  0  0  0  0  0  0  0  # atno 7974 bound_to 7965
  155.2161  140.3327  155.4322 H   0  0  0  0  0  0  0  0  0  0  0  0  # atno 8008 bound_to 7997
  156.2351  140.1869  156.7187 H   0  0  0  0  0  0  0  0  0  0  0  0  # atno 8009 bound_to 7997
  154.6046  140.0618  156.9399 H   0  0  0  0  0  0  0  0  0  0  0  0  # atno 8010 bound_to 7997
  140.3074  144.2861  150.6206 H   0  0  0  0  0  0  0  0  0  0  0  0  # atno 10167 bound_to 10162
  156.0416  130.4328  150.2271 H   0  0  0  0  0  0  0  0  0  0  0  0  # atno 10718 bound_to 10713
  153.1070  135.4786  154.8968 H   0  0  0  0  0  0  0  0  0  0  0  0  # atno 10763 bound_to 10752
  154.7440  135.3089  154.8679 H   0  0  0  0  0  0  0  0  0  0  0  0  # atno 10764 bound_to 10752
  153.9279  135.6848  153.4799 H   0  0  0  0  0  0  0  0  0  0  0  0  # atno 10765 bound_to 10752
  139.9390  134.7435  156.1151 H   0  0  0  0  0  0  0  0  0  0  0  0  # atno 11005 bound_to 11000
  145.1956  140.9831  143.4185 LP  0  0  0  0  0  0  0  0  0  0  0  0  # atno 17320 bound_to 7965
  144.9819  139.3775  143.6258 LP  0  0  0  0  0  0  0  0  0  0  0  0  # atno 17321 bound_to 7965
  140.5598  143.2194  151.7784 LP  0  0  0  0  0  0  0  0  0  0  0  0  # atno 17342 bound_to 10162
  139.4901  144.4364  151.9814 LP  0  0  0  0  0  0  0  0  0  0  0  0  # atno 17343 bound_to 10162
  157.0365  131.0023  151.3296 LP  0  0  0  0  0  0  0  0  0  0  0  0  # atno 17370 bound_to 10713
  157.5240  130.8016  149.7841 LP  0  0  0  0  0  0  0  0  0  0  0  0  # atno 17371 bound_to 10713
  141.1016  133.6675  156.2767 LP  0  0  0  0  0  0  0  0  0  0  0  0  # atno 17394 bound_to 11000
  140.6002  134.5563  157.5516 LP  0  0  0  0  0  0  0  0  0  0  0  0  # atno 17395 bound_to 11000

$$$$
