AV-unprocessed.smi:287|AV-procd|sdf|2190|dock2
  -GOLD-   2262021583D 1   1.00000     0.00000
 Structure written by MMmdl.
 55 58  0  0  0  0  0  0  0  0  1 V2000
  152.2123  143.9691  159.6972 C   0  0  0  0  0  0  0  0  0  0  0  0
  151.5504  142.9579  158.8252 C   0  0  0  0  0  0  0  0  0  0  0  0
  150.3898  142.9435  158.1082 C   0  0  0  0  0  0  0  0  0  0  0  0
  150.3045  141.6754  157.4596 C   0  0  0  0  0  0  0  0  0  0  0  0
  149.1765  141.2162  156.5452 C   0  0  2  0  0  0  0  0  0  0  0  0
  149.7148  140.9915  155.1221 C   0  0  0  0  0  0  0  0  0  0  0  0
  148.1521  142.1818  156.4063 O   0  0  0  0  0  0  0  0  0  0  0  0
  148.4876  139.9321  157.0626 C   0  0  0  0  0  0  0  0  0  0  0  0
  147.4609  139.4326  156.1535 N   0  0  0  0  0  0  0  0  0  0  0  0
  147.2340  138.1066  156.0458 C   0  0  0  0  0  0  0  0  0  0  0  0
  147.9442  137.2140  156.7825 N   0  0  0  0  0  0  0  0  0  0  0  0
  147.6986  135.9073  156.6603 C   0  0  0  0  0  0  0  0  0  0  0  0
  146.8077  135.2968  155.8766 N   0  0  0  0  0  0  0  0  0  0  0  0
  146.0878  136.1849  155.1300 C   0  0  0  0  0  0  0  0  0  0  0  0
  146.2454  137.6003  155.1630 C   0  0  0  0  0  0  0  0  0  0  0  0
  145.3514  138.1963  154.2867 N   0  0  0  0  0  0  0  0  0  0  0  0
  144.7008  137.1897  153.7711 C   0  0  0  0  0  0  0  0  0  0  0  0
  145.0831  135.9390  154.2069 N   0  0  0  0  0  0  0  0  0  0  0  0
  144.4629  134.6345  153.7822 C   0  0  2  0  0  0  0  0  0  0  0  0
  145.4603  133.8332  153.2337 O   0  0  0  0  0  0  0  0  0  0  0  0
  145.4304  133.9433  151.8204 C   0  0  1  0  0  0  0  0  0  0  0  0
  146.1205  132.7312  151.1699 C   0  0  0  0  0  0  0  0  0  0  0  0
  147.4745  132.6189  151.5575 O   0  0  0  0  0  0  0  0  0  0  0  0
  143.9540  134.1799  151.4585 C   0  0  2  0  0  0  0  0  0  0  0  0
  143.8582  135.0804  150.3733 O   0  0  0  0  0  0  0  0  0  0  0  0
  143.3487  134.7913  152.7282 C   0  0  1  0  0  0  0  0  0  0  0  0
  142.1911  134.0739  153.1071 O   0  0  0  0  0  0  0  0  0  0  0  0
  151.4386  141.0047  157.8514 C   0  0  0  0  0  0  0  0  0  0  0  0
  151.9935  139.6476  157.5680 C   0  0  0  0  0  0  0  0  0  0  0  0
  152.1992  141.7758  158.6777 O   0  0  0  0  0  0  0  0  0  0  0  0
  144.1085  134.2016  154.7190 H   0  0  0  0  0  0  0  0  0  0  0  0
  146.0198  134.8268  151.5752 H   0  0  0  0  0  0  0  0  0  0  0  0
  143.4500  133.2486  151.1985 H   0  0  0  0  0  0  0  0  0  0  0  0
  143.0703  135.8392  152.6157 H   0  0  0  0  0  0  0  0  0  0  0  0
  151.6740  144.9168  159.6717 H   0  0  0  0  0  0  0  0  0  0  0  0
  153.2351  144.1532  159.3686 H   0  0  0  0  0  0  0  0  0  0  0  0
  152.2442  143.6258  160.7313 H   0  0  0  0  0  0  0  0  0  0  0  0
  149.6806  143.7557  158.0490 H   0  0  0  0  0  0  0  0  0  0  0  0
  150.4894  140.2241  155.1083 H   0  0  0  0  0  0  0  0  0  0  0  0
  150.1509  141.9044  154.7143 H   0  0  0  0  0  0  0  0  0  0  0  0
  148.9253  140.6700  154.4417 H   0  0  0  0  0  0  0  0  0  0  0  0
  148.5152  142.9444  155.9825 H   0  0  0  0  0  0  0  0  0  0  0  0
  149.2222  139.1539  157.2761 H   0  0  0  0  0  0  0  0  0  0  0  0
  147.9919  140.1604  158.0074 H   0  0  0  0  0  0  0  0  0  0  0  0
  146.9198  140.1336  155.6670 H   0  0  0  0  0  0  0  0  0  0  0  0
  148.3021  135.2582  157.2773 H   0  0  0  0  0  0  0  0  0  0  0  0
  143.9116  137.3353  153.0477 H   0  0  0  0  0  0  0  0  0  0  0  0
  145.6094  131.8152  151.4668 H   0  0  0  0  0  0  0  0  0  0  0  0
  146.0578  132.7932  150.0834 H   0  0  0  0  0  0  0  0  0  0  0  0
  147.9296  132.0997  150.9119 H   0  0  0  0  0  0  0  0  0  0  0  0
  143.0109  134.9692  149.9688 H   0  0  0  0  0  0  0  0  0  0  0  0
  142.4544  133.2143  153.3988 H   0  0  0  0  0  0  0  0  0  0  0  0
  151.2826  138.8723  157.8533 H   0  0  0  0  0  0  0  0  0  0  0  0
  152.9167  139.4746  158.1216 H   0  0  0  0  0  0  0  0  0  0  0  0
  152.2131  139.5345  156.5064 H   0  0  0  0  0  0  0  0  0  0  0  0
  1  2  1  0  0  0  0
  1 35  1  0  0  0  0
  1 36  1  0  0  0  0
  1 37  1  0  0  0  0
  2 30  1  0  0  0  0
  2  3  2  0  0  0  0
  3  4  1  0  0  0  0
  3 38  1  0  0  0  0
  4  5  1  0  0  0  0
  4 28  2  0  0  0  0
  5  6  1  0  0  0  0
  5  7  1  0  0  0  0
  5  8  1  0  0  0  0
  6 39  1  0  0  0  0
  6 40  1  0  0  0  0
  6 41  1  0  0  0  0
  7 42  1  0  0  0  0
  8  9  1  0  0  0  0
  8 43  1  0  0  0  0
  8 44  1  0  0  0  0
  9 10  1  0  0  0  0
  9 45  1  0  0  0  0
 10 15  1  0  0  0  0
 10 11  2  0  0  0  0
 11 12  1  0  0  0  0
 12 13  2  0  0  0  0
 12 46  1  0  0  0  0
 13 14  1  0  0  0  0
 14 18  1  0  0  0  0
 14 15  2  0  0  0  0
 15 16  1  0  0  0  0
 16 17  2  0  0  0  0
 17 18  1  0  0  0  0
 17 47  1  0  0  0  0
 18 19  1  0  0  0  0
 19 31  1  0  0  0  0
 19 26  1  0  0  0  0
 19 20  1  0  0  0  0
 20 21  1  0  0  0  0
 21 32  1  0  0  0  0
 21 22  1  0  0  0  0
 21 24  1  0  0  0  0
 22 23  1  0  0  0  0
 22 48  1  0  0  0  0
 22 49  1  0  0  0  0
 23 50  1  0  0  0  0
 24 33  1  0  0  0  0
 24 25  1  0  0  0  0
 24 26  1  0  0  0  0
 25 51  1  0  0  0  0
 26 34  1  0  0  0  0
 26 27  1  0  0  0  0
 27 52  1  0  0  0  0
 28 29  1  0  0  0  0
 28 30  1  0  0  0  0
 29 53  1  0  0  0  0
 29 54  1  0  0  0  0
 29 55  1  0  0  0  0
M  END
> <s_m_source_file>
AV-unprocessed.smi

> <i_m_source_file_index>
287

> <i_lp_mmshare_version>
43012

> <i_f3d_flags>
0

> <s_epik_input>
W0NIM11jMVtjSF1jKGMobzEpW0NIM10pW0NAQF0oW0NIM10pKFtPSF0pW0NIMl1bTkhdYyhuW2NIXW4yKWMoYzIzKW5bY0hdbjNbQ0BASF00T1tDQEhdKFtDSDJdW09IXSlbQ0BASF0oW09IXSlbQ0BIXTRbT0hd

> <s_epik_cmdline>
J2VwaWtfcHl0aG9uJywgJy1waCcsICc3LjAnLCAnLXRuJywgJzgnLCAnLW1hJywgJzIwMCcsICctbWV0YWxfYmluZGluZycsICctaW1hZScsICc8aW5maWxlLm1hZT4nLCAnLW9tYWUnLCAnPG91dGZpbGUubWFlPic=

> <r_lp_tautomer_probability>
1

> <r_epik_Ionization_Penalty>
0.000992612

> <r_epik_Ionization_Penalty_Charging>
0

> <r_epik_Ionization_Penalty_Neutral>
0.000992612

> <r_epik_State_Penalty>
-0

> <r_epik_Charging_Adjusted_Penalty>
0

> <i_epik_Tot_Q>
0

> <i_epik_Tot_abs_Q>
0

> <r_epik_Metal_State_Penalty>
-0

> <b_epik_Metal_Only>
0

> <s_epik_Chemistry_Notes>
This compound contains an acetal/aminal-like group ( X-CH(R)-Y where X, Y are N, S, or O) that may be acid/base labile, releasing an aldehyde.

> <s_lp_Force_Field>
OPLS_2005

> <r_lp_Energy>
41.2787

> <b_lp_Chiralities_Consistent>
1

> <s_lp_Variant>
AV-unprocessed.smi:287-14

> <Gold.Version>
5.8.1

> <Gold.Id.Protein>
6NUR|6NUR_protein|mol2

> <Gold.PLP.Fitness>
45.3930

> <Gold.PLP.PLP>
-33.8396

> <Gold.PLP.part.hbond>
-4.0000

> <Gold.PLP.part.metal>
0.0000

> <Gold.PLP.part.buried>
-6.8314

> <Gold.PLP.part.nonpolar>
-23.9720

> <Gold.PLP.part.repulsive>
0.2229

> <Gold.PLP.ligand.clash>
0.0000

> <Gold.PLP.ligand.torsion>
0.2273

> <Gold.PLP.Chemscore.Hbond>
3.9588

> <Gold.PLP.Chemscore.CHOScore>
0.0000

> <Gold.PLP.Chemscore.Metal>
0.0000

> <Gold.Chemscore.Hbonds>
donor molecule, donor type, donor heavy atom, donor atom, acceptor molecule, acceptor atom, score
      L1  H     7    42       P1  8028  1.00
      L1  H    23    50       P1 10747  1.00
      L1  H    25    51       P1 10186  0.81
      L1  H    27    52       P1 10957  1.00

> <Gold.PLP.Chemscore.Internal.Correction>
0.1317

> <Gold.Rescore>
     Score         DG    S(hbond)    S(metal)    S(lipo)     H(rot)  DE(clash)    DE(int)     intcor
     13.48     -13.73       3.60        0.00      83.01       5.27       0.01       0.23       ----

> <Gold.Chemscore.Fitness>
13.4826

> <Gold.Chemscore.DG>
-13.7303

> <Gold.Chemscore.ZeroCoef>
-5.4800

> <Gold.Chemscore.Hbond>
3.5993

> <Gold.Chemscore.Metal>
0.0000

> <Gold.Chemscore.Lipo>
83.0137

> <Gold.Chemscore.Internal_Hbond>
0.0000

> <Gold.Chemscore.DEClash>
0.0130

> <Gold.Chemscore.DEInternal>
0.2346

> <Gold.Chemscore.Rot>
5.2672

> <Gold.Chemscore.Internal.Correction>
   9.000000E+99

> <Gold.Chemscore.Hbonds>
donor molecule, donor type, donor heavy atom, donor atom, acceptor molecule, acceptor atom, score
      L1  H     7    42       P1  8028  0.97
      L1  H    23    50       P1 10747  0.99
      L1  H    25    51       P1 10186  0.36
      L1  H    27    52       P1 10957  0.87

> <Gold.Chemscore.Hbond.Weighted>
-12.0216

> <Gold.Chemscore.Metal.Weighted>
-0.0000

> <Gold.Chemscore.Lipo.Weighted>
-9.7126

> <Gold.Chemscore.Internal_Hbond.Weighted>
0.0000

> <Gold.Chemscore.DEClash.Weighted>
0.0130

> <Gold.Chemscore.DEInternal.Weighted>
0.2346

> <Gold.Chemscore.Rot.Weighted>
13.4839

> <Gold.Chemscore.Internal.Correction.Weighted>
   9.000000E+99

> <Gold.Protein.RotatedTorsions>
[ 6907 6896 6895 6894 ] final  141.56 input  -60.11 | X-H torsion
[ 7974 7965 7964 7962 ] final  -13.10 input  175.53 | X-H torsion
[ 8008 7997 7996 7995 ] final  -39.15 input   59.86 | X-H torsion
[ 10167 10162 10161 10158 ] final   84.70 input  -65.29 | X-H torsion
[ 10718 10713 10712 10709 ] final  178.25 input   66.30 | X-H torsion
[ 10763 10752 10751 10750 ] final  -70.11 input  -60.55 | X-H torsion
[ 11005 11000 10999 10996 ] final  -19.35 input  -57.11 | X-H torsion

> <Gold.Protein.ActiveResidues>
 VAL166  LYS551  ARG553  GLY616  TRP617  ASP618  TYR619  PRO620  LYS621  CYS622 
 ASP623  PHE694  ASN695  SER759  ASP760  ASP761  ALA762  ILE779  LEU786  VAL792 
 PHE793  MET794  SER795  GLU796  ALA797  LYS798  CYS799  TRP800  GLU811  SER814 

> <Gold.Protein.RotatedAtoms>
  152.2295  133.5047  159.5207 H   0  0  0  0  0  0  0  0  0  0  0  0  # atno 6907 bound_to 6896
  150.7034  134.1235  159.4052 H   0  0  0  0  0  0  0  0  0  0  0  0  # atno 6908 bound_to 6896
  151.9156  135.0320  160.0568 H   0  0  0  0  0  0  0  0  0  0  0  0  # atno 6909 bound_to 6896
  146.2127  140.3154  142.8386 H   0  0  0  0  0  0  0  0  0  0  0  0  # atno 7974 bound_to 7965
  154.4027  140.1559  156.2816 H   0  0  0  0  0  0  0  0  0  0  0  0  # atno 8008 bound_to 7997
  155.8864  140.3441  155.5903 H   0  0  0  0  0  0  0  0  0  0  0  0  # atno 8009 bound_to 7997
  155.7608  140.0817  157.2147 H   0  0  0  0  0  0  0  0  0  0  0  0  # atno 8010 bound_to 7997
  139.9053  144.6305  150.8594 H   0  0  0  0  0  0  0  0  0  0  0  0  # atno 10167 bound_to 10162
  156.8934  130.9855  151.3046 H   0  0  0  0  0  0  0  0  0  0  0  0  # atno 10718 bound_to 10713
  154.4131  135.6004  153.5964 H   0  0  0  0  0  0  0  0  0  0  0  0  # atno 10763 bound_to 10752
  152.9791  135.5934  154.4046 H   0  0  0  0  0  0  0  0  0  0  0  0  # atno 10764 bound_to 10752
  154.3861  135.2841  155.2161 H   0  0  0  0  0  0  0  0  0  0  0  0  # atno 10765 bound_to 10752
  140.8357  133.7963  155.9807 H   0  0  0  0  0  0  0  0  0  0  0  0  # atno 11005 bound_to 11000
  144.8958  140.7581  143.5898 LP  0  0  0  0  0  0  0  0  0  0  0  0  # atno 17320 bound_to 7965
  145.3078  139.1828  143.4655 LP  0  0  0  0  0  0  0  0  0  0  0  0  # atno 17321 bound_to 7965
  140.7698  143.3406  151.2217 LP  0  0  0  0  0  0  0  0  0  0  0  0  # atno 17342 bound_to 10162
  139.6989  143.9566  152.2896 LP  0  0  0  0  0  0  0  0  0  0  0  0  # atno 17343 bound_to 10162
  157.6070  130.8554  149.8891 LP  0  0  0  0  0  0  0  0  0  0  0  0  # atno 17370 bound_to 10713
  156.0618  130.3698  150.0966 LP  0  0  0  0  0  0  0  0  0  0  0  0  # atno 17371 bound_to 10713
  140.8949  134.2449  157.5074 LP  0  0  0  0  0  0  0  0  0  0  0  0  # atno 17394 bound_to 11000
  139.8704  134.9679  156.4613 LP  0  0  0  0  0  0  0  0  0  0  0  0  # atno 17395 bound_to 11000

$$$$
