AV-unprocessed.smi:35|AV-procd|sdf|260|dock2
  -GOLD-   2262016 23D 1   1.00000     0.00000
 Structure written by MMmdl.
 29 30  0  0  0  0  0  0  0  0  1 V2000
  152.6895  136.8091  159.8596 O   0  0  0  0  0  0  0  0  0  0  0  0
  152.3524  137.6837  159.0647 C   0  0  0  0  0  0  0  0  0  0  0  0
  152.4973  139.0340  159.3972 N   0  0  0  0  0  0  0  0  0  0  0  0
  152.1544  140.1122  158.5788 C   0  0  0  0  0  0  0  0  0  0  0  0
  152.3047  141.2643  158.9838 O   0  0  0  0  0  0  0  0  0  0  0  0
  151.6312  139.8120  157.3013 N   0  0  0  0  0  0  0  0  0  0  0  0
  151.2354  140.9443  156.3819 C   0  0  1  0  0  0  0  0  0  0  0  0
  150.7496  140.4062  155.1866 O   0  0  0  0  0  0  0  0  0  0  0  0
  149.4793  140.9682  154.8733 C   0  0  1  0  0  0  0  0  0  0  0  0
  148.6689  139.9540  154.0507 C   0  0  0  0  0  0  0  0  0  0  0  0
  149.5136  138.9558  153.5197 O   0  0  0  0  0  0  0  0  0  0  0  0
  148.8920  141.3080  156.2453 C   0  0  2  0  0  0  0  0  0  0  0  0
  147.8620  142.2772  156.2003 O   0  0  0  0  0  0  0  0  0  0  0  0
  150.1152  141.7809  157.0217 C   0  0  2  0  0  0  0  0  0  0  0  0
  150.3643  143.1665  156.8618 O   0  0  0  0  0  0  0  0  0  0  0  0
  151.4479  138.4846  156.9355 C   0  0  0  0  0  0  0  0  0  0  0  0
  151.7807  137.4505  157.7429 C   0  0  0  0  0  0  0  0  0  0  0  0
  151.4391  135.6312  157.0373 Br  0  0  0  0  0  0  0  0  0  0  0  0
  152.8768  139.2471  160.3083 H   0  0  0  0  0  0  0  0  0  0  0  0
  152.1468  141.5053  156.1651 H   0  0  0  0  0  0  0  0  0  0  0  0
  149.6568  141.8790  154.2981 H   0  0  0  0  0  0  0  0  0  0  0  0
  147.9291  139.4666  154.6858 H   0  0  0  0  0  0  0  0  0  0  0  0
  148.1254  140.4462  153.2437 H   0  0  0  0  0  0  0  0  0  0  0  0
  149.4913  139.0124  152.5765 H   0  0  0  0  0  0  0  0  0  0  0  0
  148.5021  140.4017  156.7110 H   0  0  0  0  0  0  0  0  0  0  0  0
  148.2479  143.1106  155.9761 H   0  0  0  0  0  0  0  0  0  0  0  0
  150.0234  141.5704  158.0883 H   0  0  0  0  0  0  0  0  0  0  0  0
  149.6420  143.5472  156.3856 H   0  0  0  0  0  0  0  0  0  0  0  0
  151.0173  138.2519  155.9729 H   0  0  0  0  0  0  0  0  0  0  0  0
  1  2  2  0  0  0  0
  2 17  1  0  0  0  0
  2  3  1  0  0  0  0
  3 19  1  0  0  0  0
  3  4  1  0  0  0  0
  4  5  2  0  0  0  0
  4  6  1  0  0  0  0
  6  7  1  0  0  0  0
  6 16  1  0  0  0  0
  7 14  1  0  0  0  0
  7  8  1  0  0  0  0
  7 20  1  0  0  0  0
  8  9  1  0  0  0  0
  9 10  1  0  0  0  0
  9 12  1  0  0  0  0
  9 21  1  0  0  0  0
 10 11  1  0  0  0  0
 10 22  1  0  0  0  0
 10 23  1  0  0  0  0
 11 24  1  0  0  0  0
 12 13  1  0  0  0  0
 12 14  1  0  0  0  0
 12 25  1  0  0  0  0
 13 26  1  0  0  0  0
 14 15  1  0  0  0  0
 14 27  1  0  0  0  0
 15 28  1  0  0  0  0
 16 17  2  0  0  0  0
 16 29  1  0  0  0  0
 17 18  1  0  0  0  0
M  END
> <s_m_source_file>
AV-unprocessed.smi

> <i_m_source_file_index>
35

> <i_lp_mmshare_version>
43012

> <i_f3d_flags>
0

> <s_epik_input>
Tz1jMVtuSF1jKD1PKW4oW2NIXWMxQnIpW0NAQEhdMk9bQ0BASF0oW0NIMl1bT0hdKVtDQEBIXShbT0hdKVtDQEhdMltPSF0=

> <s_epik_cmdline>
J2VwaWtfcHl0aG9uJywgJy1waCcsICc3LjAnLCAnLXRuJywgJzgnLCAnLW1hJywgJzIwMCcsICctbWV0YWxfYmluZGluZycsICctaW1hZScsICc8aW5maWxlLm1hZT4nLCAnLW9tYWUnLCAnPG91dGZpbGUubWFlPic=

> <r_lp_tautomer_probability>
0.999537

> <r_epik_Ionization_Penalty>
0.10812

> <r_epik_Ionization_Penalty_Charging>
0.108119

> <r_epik_Ionization_Penalty_Neutral>
4.93006e-07

> <r_epik_State_Penalty>
0.0979238

> <r_epik_Charging_Adjusted_Penalty>
0.206043

> <i_epik_Tot_Q>
0

> <i_epik_Tot_abs_Q>
0

> <r_epik_Metal_State_Penalty>
3.07911

> <b_epik_Metal_Only>
0

> <s_epik_Chemistry_Notes>
This compound contains an acetal/aminal-like group ( X-CH(R)-Y where X, Y are N, S, or O) that may be acid/base labile, releasing an aldehyde.

> <s_lp_Force_Field>
OPLS_2005

> <r_lp_Energy>
30.2872

> <b_lp_Chiralities_Consistent>
1

> <s_lp_Variant>
AV-unprocessed.smi:35-14

> <Gold.Version>
5.8.1

> <Gold.Id.Protein>
6NUR|6NUR_protein|mol2

> <Gold.PLP.Fitness>
38.8734

> <Gold.PLP.PLP>
-25.1649

> <Gold.PLP.part.hbond>
-4.9437

> <Gold.PLP.part.metal>
0.0000

> <Gold.PLP.part.buried>
-4.1742

> <Gold.PLP.part.nonpolar>
-15.6834

> <Gold.PLP.part.repulsive>
0.1469

> <Gold.PLP.ligand.clash>
0.0000

> <Gold.PLP.ligand.torsion>
0.6521

> <Gold.PLP.Chemscore.Hbond>
5.0000

> <Gold.PLP.Chemscore.CHOScore>
0.0000

> <Gold.PLP.Chemscore.Metal>
0.0000

> <Gold.Chemscore.Hbonds>
donor molecule, donor type, donor heavy atom, donor atom, acceptor molecule, acceptor atom, score
      L1  H    11    24       P1  7957  0.96
      L1  H    13    26       P1  8028  1.00
      L1  H    15    28       P1  8028  1.00
      P1  H  6896  6909       L1     1  1.00
      P1  H  7989  7998       L1     8  0.85

> <Gold.PLP.Chemscore.Internal.Correction>
0.0127

> <Gold.Rescore>
     Score         DG    S(hbond)    S(metal)    S(lipo)     H(rot)  DE(clash)    DE(int)     intcor
     12.10     -13.92       4.06        0.00      36.56       3.67       0.01       1.81       ----

> <Gold.Chemscore.Fitness>
12.0987

> <Gold.Chemscore.DG>
-13.9156

> <Gold.Chemscore.ZeroCoef>
-5.4800

> <Gold.Chemscore.Hbond>
4.0581

> <Gold.Chemscore.Metal>
0.0000

> <Gold.Chemscore.Lipo>
36.5564

> <Gold.Chemscore.Internal_Hbond>
0.0000

> <Gold.Chemscore.DEClash>
0.0059

> <Gold.Chemscore.DEInternal>
1.8110

> <Gold.Chemscore.Rot>
3.6701

> <Gold.Chemscore.Internal.Correction>
   9.000000E+99

> <Gold.Chemscore.Hbonds>
donor molecule, donor type, donor heavy atom, donor atom, acceptor molecule, acceptor atom, score
      L1  H    11    24       P1  7957  0.87
      L1  H    13    26       P1  8028  0.82
      L1  H    15    28       P1  8028  0.94
      P1  H  6896  6909       L1     1  1.00
      P1  H  7989  7998       L1     8  0.14

> <Gold.Chemscore.Hbond.Weighted>
-13.5540

> <Gold.Chemscore.Metal.Weighted>
-0.0000

> <Gold.Chemscore.Lipo.Weighted>
-4.2771

> <Gold.Chemscore.Internal_Hbond.Weighted>
0.0000

> <Gold.Chemscore.DEClash.Weighted>
0.0059

> <Gold.Chemscore.DEInternal.Weighted>
1.8110

> <Gold.Chemscore.Rot.Weighted>
9.3955

> <Gold.Chemscore.Internal.Correction.Weighted>
   9.000000E+99

> <Gold.Protein.RotatedTorsions>
[ 6907 6896 6895 6894 ] final  138.40 input  -60.11 | X-H torsion
[ 7974 7965 7964 7962 ] final   25.48 input  175.53 | X-H torsion
[ 8008 7997 7996 7995 ] final  131.96 input   59.86 | X-H torsion
[ 10167 10162 10161 10158 ] final  -70.60 input  -65.29 | X-H torsion
[ 10718 10713 10712 10709 ] final -112.18 input   66.30 | X-H torsion
[ 10763 10752 10751 10750 ] final  -47.22 input  -60.55 | X-H torsion
[ 11005 11000 10999 10996 ] final  163.45 input  -57.11 | X-H torsion

> <Gold.Protein.ActiveResidues>
 VAL166  LYS551  ARG553  GLY616  TRP617  ASP618  TYR619  PRO620  LYS621  CYS622 
 ASP623  PHE694  ASN695  SER759  ASP760  ASP761  ALA762  ILE779  LEU786  VAL792 
 PHE793  MET794  SER795  GLU796  ALA797  LYS798  CYS799  TRP800  GLU811  SER814 

> <Gold.Protein.RotatedAtoms>
  152.2670  133.5348  159.5415 H   0  0  0  0  0  0  0  0  0  0  0  0  # atno 6907 bound_to 6896
  150.7145  134.0750  159.3887 H   0  0  0  0  0  0  0  0  0  0  0  0  # atno 6908 bound_to 6896
  151.8666  135.0505  160.0526 H   0  0  0  0  0  0  0  0  0  0  0  0  # atno 6909 bound_to 6896
  146.1886  139.7460  142.8848 H   0  0  0  0  0  0  0  0  0  0  0  0  # atno 7974 bound_to 7965
  156.2977  140.2558  156.3011 H   0  0  0  0  0  0  0  0  0  0  0  0  # atno 8008 bound_to 7997
  154.9416  140.0396  157.2118 H   0  0  0  0  0  0  0  0  0  0  0  0  # atno 8009 bound_to 7997
  154.8121  140.2846  155.5850 H   0  0  0  0  0  0  0  0  0  0  0  0  # atno 8010 bound_to 7997
  140.5339  143.2319  151.7212 H   0  0  0  0  0  0  0  0  0  0  0  0  # atno 10167 bound_to 10162
  156.0690  130.5906  150.8474 H   0  0  0  0  0  0  0  0  0  0  0  0  # atno 10718 bound_to 10713
  154.0578  135.6622  153.4808 H   0  0  0  0  0  0  0  0  0  0  0  0  # atno 10763 bound_to 10752
  153.0438  135.5127  154.7689 H   0  0  0  0  0  0  0  0  0  0  0  0  # atno 10764 bound_to 10752
  154.6715  135.3030  154.9702 H   0  0  0  0  0  0  0  0  0  0  0  0  # atno 10765 bound_to 10752
  140.2359  134.8088  157.3363 H   0  0  0  0  0  0  0  0  0  0  0  0  # atno 11005 bound_to 11000
  145.3862  141.0365  143.3150 LP  0  0  0  0  0  0  0  0  0  0  0  0  # atno 17320 bound_to 7965
  144.8444  139.5420  143.6885 LP  0  0  0  0  0  0  0  0  0  0  0  0  # atno 17321 bound_to 7965
  139.4964  144.4072  152.0119 LP  0  0  0  0  0  0  0  0  0  0  0  0  # atno 17342 bound_to 10162
  140.3176  144.3465  150.6017 LP  0  0  0  0  0  0  0  0  0  0  0  0  # atno 17343 bound_to 10162
  157.5750  131.0946  150.9359 LP  0  0  0  0  0  0  0  0  0  0  0  0  # atno 17370 bound_to 10713
  156.9567  130.5440  149.5284 LP  0  0  0  0  0  0  0  0  0  0  0  0  # atno 17371 bound_to 10713
  140.1702  134.4618  155.7836 LP  0  0  0  0  0  0  0  0  0  0  0  0  # atno 17394 bound_to 11000
  141.2214  133.6938  156.7695 LP  0  0  0  0  0  0  0  0  0  0  0  0  # atno 17395 bound_to 11000

$$$$
