AV-unprocessed.smi:21|AV-procd|sdf|156|dock4
  -GOLD-   2262015383D 1   1.00000     0.00000
 Structure written by MMmdl.
 61 64  0  0  0  0  0  0  0  0  1 V2000
  145.9898  133.1025  150.9570 C   0  0  0  0  0  0  0  0  0  0  0  0
  146.9054  133.9228  151.6649 O   0  0  0  0  0  0  0  0  0  0  0  0
  147.0941  133.5167  153.0135 C   0  0  2  0  0  0  0  0  0  0  0  0
  148.0295  134.4773  153.7666 C   0  0  0  0  0  0  0  0  0  0  0  0
  149.0972  133.5646  154.3871 C   0  0  2  0  0  0  0  0  0  0  0  0
  150.4345  134.2820  154.6844 C   0  0  0  0  0  0  0  0  0  0  0  0
  150.4637  134.9492  155.9870 N   0  0  0  0  0  0  0  0  0  0  0  0
  149.5149  134.4895  156.9975 C   0  0  0  0  0  0  0  0  0  0  0  0
  150.8834  136.2431  156.0422 C   0  0  0  0  0  0  0  0  0  0  0  0
  151.2403  136.8696  154.8878 N   0  0  0  0  0  0  0  0  0  0  0  0
  151.7019  138.1227  154.9069 C   0  0  0  0  0  0  0  0  0  0  0  0
  151.8849  138.9273  155.9539 N   0  0  0  0  0  0  0  0  0  0  0  0
  151.5114  138.3167  157.1141 C   0  0  0  0  0  0  0  0  0  0  0  0
  150.9966  136.9952  157.2491 C   0  0  0  0  0  0  0  0  0  0  0  0
  150.7084  136.7441  158.5868 N   0  0  0  0  0  0  0  0  0  0  0  0
  151.0550  137.8388  159.2059 C   0  0  0  0  0  0  0  0  0  0  0  0
  151.5598  138.8301  158.3972 N   0  0  0  0  0  0  0  0  0  0  0  0
  152.0344  140.1379  158.8104 C   0  0  0  0  0  0  0  0  0  0  0  0
  151.0472  141.2912  158.4861 C   0  0  2  0  0  0  0  0  0  0  0  0
  151.0469  141.6608  156.9802 C   0  0  0  0  0  0  0  0  0  0  0  0
  149.8453  142.2926  156.5890 O   0  0  0  0  0  0  0  0  0  0  0  0
  151.3556  142.5316  159.3647 C   0  0  2  0  0  0  0  0  0  0  0  0
  150.3859  143.6906  159.1989 C   0  0  0  0  0  0  0  0  0  0  0  0
  151.1779  144.8583  159.7719 C   0  0  0  0  0  0  0  0  0  0  0  0
  152.5295  144.6012  159.4161 O   0  0  0  0  0  0  0  0  0  0  0  0
  152.6833  143.2341  159.0458 C   0  0  0  0  0  0  0  0  0  0  0  0
  149.2080  132.4655  153.4412 N   0  0  0  0  0  0  0  0  0  0  0  0
  149.8882  131.2917  153.9729 C   0  0  0  0  0  0  0  0  0  0  0  0
  147.8378  132.1764  153.0585 C   0  0  0  0  0  0  0  0  0  0  0  0
  146.1336  133.4104  153.5214 H   0  0  0  0  0  0  0  0  0  0  0  0
  148.6950  133.1706  155.3223 H   0  0  0  0  0  0  0  0  0  0  0  0
  145.8622  133.4870  149.9452 H   0  0  0  0  0  0  0  0  0  0  0  0
  145.0098  133.0849  151.4350 H   0  0  0  0  0  0  0  0  0  0  0  0
  146.3577  132.0783  150.8830 H   0  0  0  0  0  0  0  0  0  0  0  0
  148.4951  135.1727  153.0661 H   0  0  0  0  0  0  0  0  0  0  0  0
  147.4976  135.0649  154.5151 H   0  0  0  0  0  0  0  0  0  0  0  0
  151.2445  133.5535  154.6890 H   0  0  0  0  0  0  0  0  0  0  0  0
  150.6757  134.9630  153.8720 H   0  0  0  0  0  0  0  0  0  0  0  0
  149.8659  134.7375  158.0000 H   0  0  0  0  0  0  0  0  0  0  0  0
  149.3942  133.4072  156.9471 H   0  0  0  0  0  0  0  0  0  0  0  0
  148.5357  134.9462  156.8484 H   0  0  0  0  0  0  0  0  0  0  0  0
  151.9678  138.5375  153.9459 H   0  0  0  0  0  0  0  0  0  0  0  0
  150.9620  137.9488  160.2764 H   0  0  0  0  0  0  0  0  0  0  0  0
  152.2261  140.0814  159.8817 H   0  0  0  0  0  0  0  0  0  0  0  0
  152.9981  140.3235  158.3345 H   0  0  0  0  0  0  0  0  0  0  0  0
  150.0411  140.9591  158.7476 H   0  0  0  0  0  0  0  0  0  0  0  0
  151.8470  142.3603  156.7432 H   0  0  0  0  0  0  0  0  0  0  0  0
  151.2122  140.7765  156.3642 H   0  0  0  0  0  0  0  0  0  0  0  0
  149.3854  141.7233  155.9908 H   0  0  0  0  0  0  0  0  0  0  0  0
  151.3619  142.2387  160.4160 H   0  0  0  0  0  0  0  0  0  0  0  0
  150.1742  143.8641  158.1426 H   0  0  0  0  0  0  0  0  0  0  0  0
  149.4390  143.5428  159.7186 H   0  0  0  0  0  0  0  0  0  0  0  0
  150.8396  145.8225  159.3921 H   0  0  0  0  0  0  0  0  0  0  0  0
  151.0991  144.8733  160.8596 H   0  0  0  0  0  0  0  0  0  0  0  0
  153.5260  142.7873  159.5740 H   0  0  0  0  0  0  0  0  0  0  0  0
  152.8977  143.1957  157.9770 H   0  0  0  0  0  0  0  0  0  0  0  0
  149.8862  130.4844  153.2400 H   0  0  0  0  0  0  0  0  0  0  0  0
  149.4013  130.9279  154.8787 H   0  0  0  0  0  0  0  0  0  0  0  0
  150.9280  131.5140  154.2109 H   0  0  0  0  0  0  0  0  0  0  0  0
  147.3692  131.5431  153.8139 H   0  0  0  0  0  0  0  0  0  0  0  0
  147.7934  131.6388  152.1107 H   0  0  0  0  0  0  0  0  0  0  0  0
  1  2  1  0  0  0  0
  1 32  1  0  0  0  0
  1 33  1  0  0  0  0
  1 34  1  0  0  0  0
  2  3  1  0  0  0  0
  3 30  1  0  0  0  0
  3 29  1  0  0  0  0
  3  4  1  0  0  0  0
  4  5  1  0  0  0  0
  4 35  1  0  0  0  0
  4 36  1  0  0  0  0
  5 31  1  0  0  0  0
  5  6  1  0  0  0  0
  5 27  1  0  0  0  0
  6  7  1  0  0  0  0
  6 37  1  0  0  0  0
  6 38  1  0  0  0  0
  7  8  1  0  0  0  0
  7  9  1  0  0  0  0
  8 39  1  0  0  0  0
  8 40  1  0  0  0  0
  8 41  1  0  0  0  0
  9 14  1  0  0  0  0
  9 10  2  0  0  0  0
 10 11  1  0  0  0  0
 11 12  2  0  0  0  0
 11 42  1  0  0  0  0
 12 13  1  0  0  0  0
 13 17  1  0  0  0  0
 13 14  2  0  0  0  0
 14 15  1  0  0  0  0
 15 16  2  0  0  0  0
 16 17  1  0  0  0  0
 16 43  1  0  0  0  0
 17 18  1  0  0  0  0
 18 19  1  0  0  0  0
 18 44  1  0  0  0  0
 18 45  1  0  0  0  0
 19 20  1  0  0  0  0
 19 22  1  0  0  0  0
 19 46  1  0  0  0  0
 20 21  1  0  0  0  0
 20 47  1  0  0  0  0
 20 48  1  0  0  0  0
 21 49  1  0  0  0  0
 22 26  1  0  0  0  0
 22 23  1  0  0  0  0
 22 50  1  0  0  0  0
 23 24  1  0  0  0  0
 23 51  1  0  0  0  0
 23 52  1  0  0  0  0
 24 25  1  0  0  0  0
 24 53  1  0  0  0  0
 24 54  1  0  0  0  0
 25 26  1  0  0  0  0
 26 55  1  0  0  0  0
 26 56  1  0  0  0  0
 27 28  1  0  0  0  0
 27 29  1  0  0  0  0
 28 57  1  0  0  0  0
 28 58  1  0  0  0  0
 28 59  1  0  0  0  0
 29 60  1  0  0  0  0
 29 61  1  0  0  0  0
M  END
> <s_m_source_file>
AV-unprocessed.smi

> <i_m_source_file_index>
21

> <i_lp_mmshare_version>
43012

> <i_f3d_flags>
0

> <s_epik_input>
W0NIM11PW0NASF0xW0NIMl1bQ0BIXShOKFtDSDNdKVtDSDJdMSlbQ0gyXU4oW0NIM10pYyhuW2NIXW4yKWMoYzIzKW5bY0hdbjNbQ0gyXVtDQEhdKFtDSDJdW09IXSlbQ0BASF00W0NIMl1bQ0gyXU9bQ0gyXTQ=

> <s_epik_cmdline>
J2VwaWtfcHl0aG9uJywgJy1waCcsICc3LjAnLCAnLXRuJywgJzgnLCAnLW1hJywgJzIwMCcsICctbWV0YWxfYmluZGluZycsICctaW1hZScsICc8aW5maWxlLm1hZT4nLCAnLW9tYWUnLCAnPG91dGZpbGUubWFlPic=

> <r_lp_tautomer_probability>
1

> <r_epik_Ionization_Penalty>
2.17574

> <r_epik_Ionization_Penalty_Charging>
0

> <r_epik_Ionization_Penalty_Neutral>
2.17574

> <r_epik_State_Penalty>
2.31336

> <r_epik_Charging_Adjusted_Penalty>
2.31336

> <i_epik_Tot_Q>
0

> <i_epik_Tot_abs_Q>
0

> <r_epik_Metal_State_Penalty>
2.31025

> <b_epik_Metal_Only>
0

> <s_lp_Force_Field>
OPLS_2005

> <r_lp_Energy>
68.7045

> <b_lp_Chiralities_Consistent>
1

> <s_lp_Variant>
AV-unprocessed.smi:21-36

> <Gold.Version>
5.8.1

> <Gold.Id.Protein>
6NUR|6NUR_protein|mol2

> <Gold.PLP.Fitness>
48.7430

> <Gold.PLP.PLP>
-45.0276

> <Gold.PLP.part.hbond>
-3.0000

> <Gold.PLP.part.metal>
0.0000

> <Gold.PLP.part.buried>
-9.6838

> <Gold.PLP.part.nonpolar>
-33.8534

> <Gold.PLP.part.repulsive>
0.4156

> <Gold.PLP.ligand.clash>
0.0000

> <Gold.PLP.ligand.torsion>
1.2762

> <Gold.PLP.Chemscore.Hbond>
1.8527

> <Gold.PLP.Chemscore.CHOScore>
0.0000

> <Gold.PLP.Chemscore.Metal>
0.0000

> <Gold.Chemscore.Hbonds>
donor molecule, donor type, donor heavy atom, donor atom, acceptor molecule, acceptor atom, score
      P1  H  6896  6907       L1    15  0.75
      P1  H 10752 10763       L1    10  0.63

> <Gold.PLP.Chemscore.Internal.Correction>
0.7096

> <Gold.Rescore>
     Score         DG    S(hbond)    S(metal)    S(lipo)     H(rot)  DE(clash)    DE(int)     intcor
     10.18     -13.40       1.09        0.00     102.25       3.00       0.58       2.63       ----

> <Gold.Chemscore.Fitness>
10.1823

> <Gold.Chemscore.DG>
-13.3954

> <Gold.Chemscore.ZeroCoef>
-5.4800

> <Gold.Chemscore.Hbond>
1.0900

> <Gold.Chemscore.Metal>
0.0000

> <Gold.Chemscore.Lipo>
102.2468

> <Gold.Chemscore.Internal_Hbond>
0.0000

> <Gold.Chemscore.DEClash>
0.5806

> <Gold.Chemscore.DEInternal>
2.6325

> <Gold.Chemscore.Rot>
3.0031

> <Gold.Chemscore.Internal.Correction>
   9.000000E+99

> <Gold.Chemscore.Hbonds>
donor molecule, donor type, donor heavy atom, donor atom, acceptor molecule, acceptor atom, score
      P1  H  6896  6907       L1    15  0.50
      P1  H 10752 10763       L1    10  0.07

> <Gold.Chemscore.Hbond.Weighted>
-3.6405

> <Gold.Chemscore.Metal.Weighted>
-0.0000

> <Gold.Chemscore.Lipo.Weighted>
-11.9629

> <Gold.Chemscore.Internal_Hbond.Weighted>
0.0000

> <Gold.Chemscore.DEClash.Weighted>
0.5806

> <Gold.Chemscore.DEInternal.Weighted>
2.6325

> <Gold.Chemscore.Rot.Weighted>
7.6880

> <Gold.Chemscore.Internal.Correction.Weighted>
   9.000000E+99

> <Gold.Protein.RotatedTorsions>
[ 6907 6896 6895 6894 ] final  -25.99 input  -60.11 | X-H torsion
[ 7974 7965 7964 7962 ] final -117.66 input  175.53 | X-H torsion
[ 8008 7997 7996 7995 ] final  160.98 input   59.86 | X-H torsion
[ 10167 10162 10161 10158 ] final  -74.35 input  -65.29 | X-H torsion
[ 10718 10713 10712 10709 ] final -151.57 input   66.30 | X-H torsion
[ 10763 10752 10751 10750 ] final   46.09 input  -60.55 | X-H torsion
[ 11005 11000 10999 10996 ] final -153.43 input  -57.11 | X-H torsion

> <Gold.Protein.ActiveResidues>
 VAL166  LYS551  ARG553  GLY616  TRP617  ASP618  TYR619  PRO620  LYS621  CYS622 
 ASP623  PHE694  ASN695  SER759  ASP760  ASP761  ALA762  ILE779  LEU786  VAL792 
 PHE793  MET794  SER795  GLU796  ALA797  LYS798  CYS799  TRP800  GLU811  SER814 

> <Gold.Protein.RotatedAtoms>
  151.1673  135.0301  159.8736 H   0  0  0  0  0  0  0  0  0  0  0  0  # atno 6907 bound_to 6896
  152.5450  134.1210  159.8409 H   0  0  0  0  0  0  0  0  0  0  0  0  # atno 6908 bound_to 6896
  151.1312  133.4989  159.2631 H   0  0  0  0  0  0  0  0  0  0  0  0  # atno 6909 bound_to 6896
  145.0827  140.8436  143.4029 H   0  0  0  0  0  0  0  0  0  0  0  0  # atno 7974 bound_to 7965
  156.2135  140.1789  156.7642 H   0  0  0  0  0  0  0  0  0  0  0  0  # atno 8008 bound_to 7997
  154.5757  140.0675  156.9059 H   0  0  0  0  0  0  0  0  0  0  0  0  # atno 8009 bound_to 7997
  155.2593  140.3334  155.4277 H   0  0  0  0  0  0  0  0  0  0  0  0  # atno 8010 bound_to 7997
  140.5034  143.2357  151.7713 H   0  0  0  0  0  0  0  0  0  0  0  0  # atno 10167 bound_to 10162
  156.4609  130.8213  151.2444 H   0  0  0  0  0  0  0  0  0  0  0  0  # atno 10718 bound_to 10713
  152.9815  135.6019  154.3542 H   0  0  0  0  0  0  0  0  0  0  0  0  # atno 10763 bound_to 10752
  154.3229  135.2769  155.2512 H   0  0  0  0  0  0  0  0  0  0  0  0  # atno 10764 bound_to 10752
  154.4670  135.5951  153.6351 H   0  0  0  0  0  0  0  0  0  0  0  0  # atno 10765 bound_to 10752
  140.7082  134.3862  157.5201 H   0  0  0  0  0  0  0  0  0  0  0  0  # atno 11005 bound_to 11000
  145.1159  139.2725  143.5613 LP  0  0  0  0  0  0  0  0  0  0  0  0  # atno 17320 bound_to 7965
  146.3531  140.0769  142.8620 LP  0  0  0  0  0  0  0  0  0  0  0  0  # atno 17321 bound_to 7965
  139.4878  144.4490  151.9676 LP  0  0  0  0  0  0  0  0  0  0  0  0  # atno 17342 bound_to 10162
  140.3580  144.3008  150.5938 LP  0  0  0  0  0  0  0  0  0  0  0  0  # atno 17343 bound_to 10162
  157.7498  131.0107  150.3317 LP  0  0  0  0  0  0  0  0  0  0  0  0  # atno 17370 bound_to 10713
  156.3717  130.3864  149.7170 LP  0  0  0  0  0  0  0  0  0  0  0  0  # atno 17371 bound_to 10713
  139.8878  134.8871  156.2505 LP  0  0  0  0  0  0  0  0  0  0  0  0  # atno 17394 bound_to 11000
  141.0107  133.7097  156.1107 LP  0  0  0  0  0  0  0  0  0  0  0  0  # atno 17395 bound_to 11000

$$$$
