AV-unprocessed.smi:2201|AV-procd|sdf|8927|dock3
  -GOLD-   2272012143D 1   1.00000     0.00000
 Structure written by MMmdl.
 31 31  0  0  0  0  0  0  0  0  1 V2000
  152.3524  144.7575  157.9003 C   0  0  0  0  0  0  0  0  0  0  0  0
  151.6247  143.6980  158.7534 C   0  0  0  0  0  0  0  0  0  0  0  0
  152.5240  143.3081  159.9449 C   0  0  0  0  0  0  0  0  0  0  0  0
  150.3120  144.3106  159.2983 C   0  0  0  0  0  0  0  0  0  0  0  0
  151.3822  142.4402  157.8818 C   0  0  0  0  0  0  0  0  0  0  0  0
  151.9597  141.3920  158.1745 O   0  0  0  0  0  0  0  0  0  0  0  0
  150.5412  142.5570  156.8341 N   0  0  0  0  0  0  0  0  0  0  0  0
  150.1566  141.5678  155.8917 C   0  0  0  0  0  0  0  0  0  0  0  0
  150.8570  140.4582  155.6316 N   0  0  0  0  0  0  0  0  0  0  0  0
  150.2477  139.6624  154.6555 C   0  0  0  0  0  0  0  0  0  0  0  0
  150.8893  138.3729  154.2313 C   0  0  0  0  0  0  0  0  0  0  0  0
  150.5435  137.2558  155.2184 C   0  0  0  0  0  0  0  0  0  0  0  0
  149.8019  136.2430  154.7605 N   0  0  0  0  0  0  0  0  0  0  0  0
  150.9364  137.3074  156.3819 O   0  0  0  0  0  0  0  0  0  0  0  0
  149.0664  140.1882  154.1895 C   0  0  0  0  0  0  0  0  0  0  0  0
  148.6810  141.7088  154.9495 S   0  0  0  0  0  0  0  0  0  0  0  0
  152.5520  145.6604  158.4785 H   0  0  0  0  0  0  0  0  0  0  0  0
  151.7561  145.0503  157.0352 H   0  0  0  0  0  0  0  0  0  0  0  0
  153.3123  144.3943  157.5305 H   0  0  0  0  0  0  0  0  0  0  0  0
  153.4878  142.9155  159.6169 H   0  0  0  0  0  0  0  0  0  0  0  0
  152.0526  142.5462  160.5671 H   0  0  0  0  0  0  0  0  0  0  0  0
  152.7281  144.1685  160.5830 H   0  0  0  0  0  0  0  0  0  0  0  0
  150.5155  145.1926  159.9066 H   0  0  0  0  0  0  0  0  0  0  0  0
  149.7673  143.6071  159.9298 H   0  0  0  0  0  0  0  0  0  0  0  0
  149.6460  144.6257  158.4935 H   0  0  0  0  0  0  0  0  0  0  0  0
  150.1280  143.4680  156.6982 H   0  0  0  0  0  0  0  0  0  0  0  0
  150.5553  138.0850  153.2333 H   0  0  0  0  0  0  0  0  0  0  0  0
  151.9729  138.4826  154.1709 H   0  0  0  0  0  0  0  0  0  0  0  0
  149.5463  135.4849  155.3760 H   0  0  0  0  0  0  0  0  0  0  0  0
  149.4970  136.2424  153.7980 H   0  0  0  0  0  0  0  0  0  0  0  0
  148.4027  139.7749  153.4448 H   0  0  0  0  0  0  0  0  0  0  0  0
  1  2  1  0  0  0  0
  1 17  1  0  0  0  0
  1 18  1  0  0  0  0
  1 19  1  0  0  0  0
  2  3  1  0  0  0  0
  2  4  1  0  0  0  0
  2  5  1  0  0  0  0
  3 20  1  0  0  0  0
  3 21  1  0  0  0  0
  3 22  1  0  0  0  0
  4 23  1  0  0  0  0
  4 24  1  0  0  0  0
  4 25  1  0  0  0  0
  5  6  2  0  0  0  0
  5  7  1  0  0  0  0
  7  8  1  0  0  0  0
  7 26  1  0  0  0  0
  8 16  1  0  0  0  0
  8  9  2  0  0  0  0
  9 10  1  0  0  0  0
 10 11  1  0  0  0  0
 10 15  2  0  0  0  0
 11 12  1  0  0  0  0
 11 27  1  0  0  0  0
 11 28  1  0  0  0  0
 12 13  1  0  0  0  0
 12 14  2  0  0  0  0
 13 29  1  0  0  0  0
 13 30  1  0  0  0  0
 15 16  1  0  0  0  0
 15 31  1  0  0  0  0
M  END
> <s_m_source_file>
AV-unprocessed.smi

> <i_m_source_file_index>
2201

> <i_lp_mmshare_version>
43012

> <i_f3d_flags>
0

> <s_epik_input>
W0NIM11DKFtDSDNdKShbQ0gzXSlDKD1PKVtOSF1jMW5jKFtjSF1zMSlbQ0gyXUMoPU8pW05IMl0=

> <s_epik_cmdline>
J2VwaWtfcHl0aG9uJywgJy1waCcsICc3LjAnLCAnLXRuJywgJzgnLCAnLW1hJywgJzIwMCcsICctbWV0YWxfYmluZGluZycsICctaW1hZScsICc8aW5maWxlLm1hZT4nLCAnLW9tYWUnLCAnPG91dGZpbGUubWFlPic=

> <r_lp_tautomer_probability>
1

> <r_epik_Ionization_Penalty>
0.000136028

> <r_epik_Ionization_Penalty_Charging>
0

> <r_epik_Ionization_Penalty_Neutral>
0.000136028

> <r_epik_State_Penalty>
-0

> <r_epik_Charging_Adjusted_Penalty>
0

> <i_epik_Tot_Q>
0

> <i_epik_Tot_abs_Q>
0

> <r_epik_Metal_State_Penalty>
0.0818114

> <b_epik_Metal_Only>
0

> <s_lp_Force_Field>
OPLS_2005

> <r_lp_Energy>
8.92215

> <b_lp_Chiralities_Consistent>
1

> <s_lp_Variant>
AV-unprocessed.smi:2201-1

> <Gold.Version>
5.8.1

> <Gold.Id.Protein>
6NUR|6NUR_protein|mol2

> <Gold.PLP.Fitness>
40.2569

> <Gold.PLP.PLP>
-33.5712

> <Gold.PLP.part.hbond>
-2.6939

> <Gold.PLP.part.metal>
0.0000

> <Gold.PLP.part.buried>
-1.7415

> <Gold.PLP.part.nonpolar>
-28.6676

> <Gold.PLP.part.repulsive>
0.1217

> <Gold.PLP.ligand.clash>
0.0000

> <Gold.PLP.ligand.torsion>
0.5216

> <Gold.PLP.Chemscore.Hbond>
1.9913

> <Gold.PLP.Chemscore.CHOScore>
0.5800

> <Gold.PLP.Chemscore.Metal>
0.0000

> <Gold.Chemscore.Hbonds>
donor molecule, donor type, donor heavy atom, donor atom, acceptor molecule, acceptor atom, score
      L1  H     7    26       P1  8028  0.98
      L1  H    13    30       P1  7948  1.00
      L1  C    15    31       P1  7957  0.45

> <Gold.PLP.Chemscore.Internal.Correction>
0.0153

> <Gold.Rescore>
     Score         DG    S(hbond)    S(metal)    S(lipo)     H(rot)  DE(clash)    DE(int)     intcor
     14.10     -15.97       1.93        0.00      76.26       1.91       0.04       1.83       ----

> <Gold.Chemscore.Fitness>
14.1009

> <Gold.Chemscore.DG>
-15.9743

> <Gold.Chemscore.ZeroCoef>
-5.4800

> <Gold.Chemscore.Hbond>
1.9339

> <Gold.Chemscore.Metal>
0.0000

> <Gold.Chemscore.Lipo>
76.2634

> <Gold.Chemscore.Internal_Hbond>
0.0000

> <Gold.Chemscore.DEClash>
0.0440

> <Gold.Chemscore.DEInternal>
1.8293

> <Gold.Chemscore.Rot>
1.9092

> <Gold.Chemscore.Internal.Correction>
   9.000000E+99

> <Gold.Chemscore.Hbonds>
donor molecule, donor type, donor heavy atom, donor atom, acceptor molecule, acceptor atom, score
      L1  H     7    26       P1  8028  0.88
      L1  H    13    30       P1  7948  0.68

> <Gold.Chemscore.Hbond.Weighted>
-6.4592

> <Gold.Chemscore.Metal.Weighted>
-0.0000

> <Gold.Chemscore.Lipo.Weighted>
-8.9228

> <Gold.Chemscore.Internal_Hbond.Weighted>
0.0000

> <Gold.Chemscore.DEClash.Weighted>
0.0440

> <Gold.Chemscore.DEInternal.Weighted>
1.8293

> <Gold.Chemscore.Rot.Weighted>
4.8877

> <Gold.Chemscore.Internal.Correction.Weighted>
   9.000000E+99

> <Gold.Protein.RotatedTorsions>
[ 6907 6896 6895 6894 ] final -135.40 input  -60.11 | X-H torsion
[ 7974 7965 7964 7962 ] final  176.03 input  175.53 | X-H torsion
[ 8008 7997 7996 7995 ] final -174.63 input   59.86 | X-H torsion
[ 10167 10162 10161 10158 ] final  -92.85 input  -65.29 | X-H torsion
[ 10718 10713 10712 10709 ] final -167.77 input   66.30 | X-H torsion
[ 10763 10752 10751 10750 ] final  163.31 input  -60.55 | X-H torsion
[ 11005 11000 10999 10996 ] final  147.77 input  -57.11 | X-H torsion

> <Gold.Protein.ActiveResidues>
 VAL166  LYS551  ARG553  GLY616  TRP617  ASP618  TYR619  PRO620  LYS621  CYS622 
 ASP623  PHE694  ASN695  SER759  ASP760  ASP761  ALA762  ILE779  LEU786  VAL792 
 PHE793  MET794  SER795  GLU796  ALA797  LYS798  CYS799  TRP800  GLU811  SER814 

> <Gold.Protein.RotatedAtoms>
  150.9974  133.6090  159.2699 H   0  0  0  0  0  0  0  0  0  0  0  0  # atno 6907 bound_to 6896
  151.3289  135.0836  159.9341 H   0  0  0  0  0  0  0  0  0  0  0  0  # atno 6908 bound_to 6896
  152.5264  133.9607  159.7770 H   0  0  0  0  0  0  0  0  0  0  0  0  # atno 6909 bound_to 6896
  144.7191  140.0036  143.6440 H   0  0  0  0  0  0  0  0  0  0  0  0  # atno 7974 bound_to 7965
  155.9725  140.1165  157.0800 H   0  0  0  0  0  0  0  0  0  0  0  0  # atno 8008 bound_to 7997
  154.4160  140.1160  156.5393 H   0  0  0  0  0  0  0  0  0  0  0  0  # atno 8009 bound_to 7997
  155.6578  140.3473  155.4774 H   0  0  0  0  0  0  0  0  0  0  0  0  # atno 8010 bound_to 7997
  140.3306  143.2997  151.9946 H   0  0  0  0  0  0  0  0  0  0  0  0  # atno 10167 bound_to 10162
  156.6872  130.9145  151.3064 H   0  0  0  0  0  0  0  0  0  0  0  0  # atno 10718 bound_to 10713
  154.2917  135.2761  155.2652 H   0  0  0  0  0  0  0  0  0  0  0  0  # atno 10763 bound_to 10752
  154.5128  135.5778  153.6622 H   0  0  0  0  0  0  0  0  0  0  0  0  # atno 10764 bound_to 10752
  152.9913  135.6185  154.3082 H   0  0  0  0  0  0  0  0  0  0  0  0  # atno 10765 bound_to 10752
  140.0904  134.9044  157.1641 H   0  0  0  0  0  0  0  0  0  0  0  0  # atno 11005 bound_to 11000
  146.0315  139.3339  143.0752 LP  0  0  0  0  0  0  0  0  0  0  0  0  # atno 17320 bound_to 7965
  145.8446  140.9562  143.0781 LP  0  0  0  0  0  0  0  0  0  0  0  0  # atno 17321 bound_to 7965
  139.4857  144.6238  151.7204 LP  0  0  0  0  0  0  0  0  0  0  0  0  # atno 17342 bound_to 10162
  140.5401  144.0593  150.6085 LP  0  0  0  0  0  0  0  0  0  0  0  0  # atno 17343 bound_to 10162
  157.7022  130.9345  150.0820 LP  0  0  0  0  0  0  0  0  0  0  0  0  # atno 17370 bound_to 10713
  156.1824  130.3650  149.9017 LP  0  0  0  0  0  0  0  0  0  0  0  0  # atno 17371 bound_to 10713
  140.3360  134.2756  155.7220 LP  0  0  0  0  0  0  0  0  0  0  0  0  # atno 17394 bound_to 11000
  141.2076  133.7801  157.0110 LP  0  0  0  0  0  0  0  0  0  0  0  0  # atno 17395 bound_to 11000

$$$$
