AV-unprocessed.smi:1056|AV-procd|sdf|4648|dock6
  -GOLD-   22720 3153D 1   1.00000     0.00000
 Structure written by MMmdl.
 45 47  0  0  0  0  0  0  0  0  4 V2000
  151.9614  144.9375  160.3369 C   0  0  0  0  0  0  0  0  0  0  0  0
  151.8479  143.7678  159.3739 C   0  0  0  0  0  0  0  0  0  0  0  0
  151.0059  143.9010  158.2470 C   0  0  0  0  0  0  0  0  0  0  0  0
  150.9225  142.8139  157.3851 C   0  0  0  0  0  0  0  0  0  0  0  0
  150.1911  142.6339  156.2094 N   0  3  0  0  0  0  0  0  0  0  0  0
  150.4325  141.3904  155.7094 C   0  0  0  0  0  0  0  0  0  0  0  0
  151.3082  140.7726  156.5483 N   0  0  0  0  0  0  0  0  0  0  0  0
  151.8973  139.4275  156.4653 C   0  0  0  0  0  0  0  0  0  0  0  0
  151.1706  138.5089  155.4622 C   0  0  2  0  0  0  0  0  0  0  0  0
  151.3632  138.9997  154.1489 O   0  0  0  0  0  0  0  0  0  0  0  0
  149.6574  138.4433  155.7548 C   0  0  0  0  0  0  0  0  0  0  0  0
  149.3103  137.4160  156.7689 N   0  3  1  0  0  0  0  0  0  0  0  0
  149.9603  136.1000  156.5330 C   0  0  0  0  0  0  0  0  0  0  0  0
  149.3174  135.0210  157.4254 C   0  0  0  0  0  0  0  0  0  0  0  0
  149.2020  135.5038  158.8068 N   0  5  0  0  0  0  0  0  0  0  0  0
  149.1842  136.8115  159.2143 C   0  0  0  0  0  0  0  0  0  0  0  0
  148.9542  137.1989  160.3577 O   0  0  0  0  0  0  0  0  0  0  0  0
  149.5320  137.8975  158.1606 C   0  0  0  0  0  0  0  0  0  0  0  0
  151.6420  141.6238  157.6096 C   0  0  0  0  0  0  0  0  0  0  0  0
  152.4760  141.4768  158.7158 C   0  0  0  0  0  0  0  0  0  0  0  0
  152.5735  142.5706  159.6053 C   0  0  0  0  0  0  0  0  0  0  0  0
  153.4750  142.4378  160.8209 C   0  0  0  0  0  0  0  0  0  0  0  0
  151.3183  145.7653  160.0368 H   0  0  0  0  0  0  0  0  0  0  0  0
  152.9866  145.3068  160.3697 H   0  0  0  0  0  0  0  0  0  0  0  0
  151.6685  144.6370  161.3431 H   0  0  0  0  0  0  0  0  0  0  0  0
  150.4506  144.8095  158.0646 H   0  0  0  0  0  0  0  0  0  0  0  0
  150.0076  140.9723  154.8082 H   0  0  0  0  0  0  0  0  0  0  0  0
  152.9370  139.5553  156.1610 H   0  0  0  0  0  0  0  0  0  0  0  0
  151.9261  138.9850  157.4615 H   0  0  0  0  0  0  0  0  0  0  0  0
  151.6168  137.5165  155.5211 H   0  0  0  0  0  0  0  0  0  0  0  0
  150.9961  138.3834  153.5335 H   0  0  0  0  0  0  0  0  0  0  0  0
  149.2889  139.4124  156.0947 H   0  0  0  0  0  0  0  0  0  0  0  0
  149.1336  138.2318  154.8209 H   0  0  0  0  0  0  0  0  0  0  0  0
  149.8688  135.7970  155.4908 H   0  0  0  0  0  0  0  0  0  0  0  0
  151.0285  136.1802  156.7421 H   0  0  0  0  0  0  0  0  0  0  0  0
  148.3356  134.7771  157.0191 H   0  0  0  0  0  0  0  0  0  0  0  0
  149.9024  134.1040  157.3609 H   0  0  0  0  0  0  0  0  0  0  0  0
  150.5746  138.1915  158.2911 H   0  0  0  0  0  0  0  0  0  0  0  0
  148.9184  138.7804  158.3444 H   0  0  0  0  0  0  0  0  0  0  0  0
  153.0246  140.5645  158.8969 H   0  0  0  0  0  0  0  0  0  0  0  0
  153.9755  141.4693  160.8429 H   0  0  0  0  0  0  0  0  0  0  0  0
  152.8956  142.5342  161.7393 H   0  0  0  0  0  0  0  0  0  0  0  0
  154.2448  143.2097  160.8130 H   0  0  0  0  0  0  0  0  0  0  0  0
  148.3163  137.2561  156.6955 H   0  0  0  0  0  0  0  0  0  0  0  0
  149.5738  143.3096  155.7770 H   0  0  0  0  0  0  0  0  0  0  0  0
  1  2  1  0  0  0  0
  1 23  1  0  0  0  0
  1 24  1  0  0  0  0
  1 25  1  0  0  0  0
  2 21  1  0  0  0  0
  2  3  2  0  0  0  0
  3  4  1  0  0  0  0
  3 26  1  0  0  0  0
  4 19  2  0  0  0  0
  4  5  1  0  0  0  0
  5  6  2  0  0  0  0
  5 45  1  0  0  0  0
  6  7  1  0  0  0  0
  6 27  1  0  0  0  0
  7  8  1  0  0  0  0
  7 19  1  0  0  0  0
  8  9  1  0  0  0  0
  8 28  1  0  0  0  0
  8 29  1  0  0  0  0
  9 10  1  0  0  0  0
  9 11  1  0  0  0  0
  9 30  1  0  0  0  0
 10 31  1  0  0  0  0
 11 12  1  0  0  0  0
 11 32  1  0  0  0  0
 11 33  1  0  0  0  0
 12 18  1  0  0  0  0
 12 13  1  0  0  0  0
 12 44  1  0  0  0  0
 13 14  1  0  0  0  0
 13 34  1  0  0  0  0
 13 35  1  0  0  0  0
 14 15  1  0  0  0  0
 14 36  1  0  0  0  0
 14 37  1  0  0  0  0
 15 16  1  0  0  0  0
 16 17  2  0  0  0  0
 16 18  1  0  0  0  0
 18 38  1  0  0  0  0
 18 39  1  0  0  0  0
 19 20  1  0  0  0  0
 20 21  2  0  0  0  0
 20 40  1  0  0  0  0
 21 22  1  0  0  0  0
 22 41  1  0  0  0  0
 22 42  1  0  0  0  0
 22 43  1  0  0  0  0
M  CHG  1   5   1
M  CHG  1  12   1
M  CHG  1  15  -1
M  END
> <s_m_source_file>
AV-unprocessed.smi

> <i_m_source_file_index>
1056

> <i_lp_mmshare_version>
43012

> <i_f3d_flags>
0

> <s_epik_input>
W0NIM11jKFtjSF0xKWMoW0NIM10pW2NIXWMoYzEyKW4oW2NIXW4yKVtDSDJdW0NASF0oW09IXSlbQ0gyXU4zW0NIMl1bQ0gyXVtOSF1DKD1PKVtDSDJdMw==

> <s_epik_cmdline>
J2VwaWtfcHl0aG9uJywgJy1waCcsICc3LjAnLCAnLXRuJywgJzgnLCAnLW1hJywgJzIwMCcsICctbWV0YWxfYmluZGluZycsICctaW1hZScsICc8aW5maWxlLm1hZT4nLCAnLW9tYWUnLCAnPG91dGZpbGUubWFlPic=

> <r_epik_Ionization_Penalty>
6.22415

> <r_epik_Ionization_Penalty_Charging>
6.22415

> <r_epik_Ionization_Penalty_Neutral>
4.02797e-07

> <r_epik_State_Penalty>
6.37716

> <r_epik_Charging_Adjusted_Penalty>
12.6013

> <i_epik_Tot_Q>
1

> <i_epik_Tot_abs_Q>
3

> <r_epik_Metal_State_Penalty>
2.53509

> <b_epik_Metal_Only>
1

> <s_lp_Force_Field>
OPLS_2005

> <r_lp_Energy>
27.8537

> <b_lp_Chiralities_Consistent>
1

> <s_lp_Variant>
AV-unprocessed.smi:1056-19

> <Gold.Version>
5.8.1

> <Gold.Id.Protein>
6NUR|6NUR_protein|mol2

> <Gold.PLP.Fitness>
56.5869

> <Gold.PLP.PLP>
-41.0274

> <Gold.PLP.part.hbond>
-4.2802

> <Gold.PLP.part.metal>
0.0000

> <Gold.PLP.part.buried>
-4.5307

> <Gold.PLP.part.nonpolar>
-32.7416

> <Gold.PLP.part.repulsive>
0.1061

> <Gold.PLP.ligand.clash>
0.0000

> <Gold.PLP.ligand.torsion>
0.6507

> <Gold.PLP.Chemscore.Hbond>
5.6080

> <Gold.PLP.Chemscore.CHOScore>
0.0000

> <Gold.PLP.Chemscore.Metal>
0.0000

> <Gold.Chemscore.Hbonds>
donor molecule, donor type, donor heavy atom, donor atom, acceptor molecule, acceptor atom, score
      L1  H     5    45       P1  8028  2.00
      P1  H  6896  6909       L1    15  1.80
      P1  H  6931  6943       L1    17  0.58
      P1  H  7989  7998       L1    10  1.00

> <Gold.PLP.Chemscore.Internal.Correction>
0.0370

> <Gold.Rescore>
     Score         DG    S(hbond)    S(metal)    S(lipo)     H(rot)  DE(clash)    DE(int)     intcor
     18.30     -20.88       2.76        0.00     104.79       2.37       0.73       1.85       ----

> <Gold.Chemscore.Fitness>
18.2983

> <Gold.Chemscore.DG>
-20.8784

> <Gold.Chemscore.ZeroCoef>
-5.4800

> <Gold.Chemscore.Hbond>
2.7579

> <Gold.Chemscore.Metal>
0.0000

> <Gold.Chemscore.Lipo>
104.7914

> <Gold.Chemscore.Internal_Hbond>
0.0000

> <Gold.Chemscore.DEClash>
0.7290

> <Gold.Chemscore.DEInternal>
1.8511

> <Gold.Chemscore.Rot>
2.3724

> <Gold.Chemscore.Internal.Correction>
   9.000000E+99

> <Gold.Chemscore.Hbonds>
donor molecule, donor type, donor heavy atom, donor atom, acceptor molecule, acceptor atom, score
      L1  H     5    45       P1  8028  0.95
      P1  H  6896  6909       L1    15  0.15
      P1  H  6931  6943       L1    17  0.58
      P1  H  7989  7998       L1    10  0.87

> <Gold.Chemscore.Hbond.Weighted>
-9.2112

> <Gold.Chemscore.Metal.Weighted>
-0.0000

> <Gold.Chemscore.Lipo.Weighted>
-12.2606

> <Gold.Chemscore.Internal_Hbond.Weighted>
0.0000

> <Gold.Chemscore.DEClash.Weighted>
0.7290

> <Gold.Chemscore.DEInternal.Weighted>
1.8511

> <Gold.Chemscore.Rot.Weighted>
6.0734

> <Gold.Chemscore.Internal.Correction.Weighted>
   9.000000E+99

> <Gold.Protein.RotatedTorsions>
[ 6907 6896 6895 6894 ] final   47.55 input  -60.11 | X-H torsion
[ 7974 7965 7964 7962 ] final -106.53 input  175.53 | X-H torsion
[ 8008 7997 7996 7995 ] final   79.07 input   59.86 | X-H torsion
[ 10167 10162 10161 10158 ] final  156.16 input  -65.29 | X-H torsion
[ 10718 10713 10712 10709 ] final  176.80 input   66.30 | X-H torsion
[ 10763 10752 10751 10750 ] final    1.53 input  -60.55 | X-H torsion
[ 11005 11000 10999 10996 ] final   76.66 input  -57.11 | X-H torsion

> <Gold.Protein.ActiveResidues>
 VAL166  LYS551  ARG553  GLY616  TRP617  ASP618  TYR619  PRO620  LYS621  CYS622 
 ASP623  PHE694  ASN695  SER759  ASP760  ASP761  ALA762  ILE779  LEU786  VAL792 
 PHE793  MET794  SER795  GLU796  ALA797  LYS798  CYS799  TRP800  GLU811  SER814 

> <Gold.Protein.RotatedAtoms>
  152.2693  134.7949  160.0416 H   0  0  0  0  0  0  0  0  0  0  0  0  # atno 6907 bound_to 6896
  151.8568  133.3444  159.3699 H   0  0  0  0  0  0  0  0  0  0  0  0  # atno 6908 bound_to 6896
  150.7146  134.5173  159.5681 H   0  0  0  0  0  0  0  0  0  0  0  0  # atno 6909 bound_to 6896
  145.2167  140.9118  143.3283 H   0  0  0  0  0  0  0  0  0  0  0  0  # atno 7974 bound_to 7965
  155.8645  140.3452  155.5779 H   0  0  0  0  0  0  0  0  0  0  0  0  # atno 8008 bound_to 7997
  155.7896  140.0870  157.2035 H   0  0  0  0  0  0  0  0  0  0  0  0  # atno 8009 bound_to 7997
  154.4013  140.1485  156.3135 H   0  0  0  0  0  0  0  0  0  0  0  0  # atno 8010 bound_to 7997
  139.4821  144.5034  151.8134 H   0  0  0  0  0  0  0  0  0  0  0  0  # atno 10167 bound_to 10162
  156.9148  130.9921  151.3014 H   0  0  0  0  0  0  0  0  0  0  0  0  # atno 10718 bound_to 10713
  153.3069  135.6960  153.7151 H   0  0  0  0  0  0  0  0  0  0  0  0  # atno 10763 bound_to 10752
  153.6044  135.3456  155.2957 H   0  0  0  0  0  0  0  0  0  0  0  0  # atno 10764 bound_to 10752
  154.8565  135.4348  154.2196 H   0  0  0  0  0  0  0  0  0  0  0  0  # atno 10765 bound_to 10752
  139.9288  134.7619  156.1424 H   0  0  0  0  0  0  0  0  0  0  0  0  # atno 11005 bound_to 11000
  144.9804  139.3789  143.6265 LP  0  0  0  0  0  0  0  0  0  0  0  0  # atno 17320 bound_to 7965
  146.3385  139.8942  142.8804 LP  0  0  0  0  0  0  0  0  0  0  0  0  # atno 17321 bound_to 7965
  140.4529  144.1829  150.5899 LP  0  0  0  0  0  0  0  0  0  0  0  0  # atno 17342 bound_to 10162
  140.4565  143.2465  151.9277 LP  0  0  0  0  0  0  0  0  0  0  0  0  # atno 17343 bound_to 10162
  157.5945  130.8467  149.8708 LP  0  0  0  0  0  0  0  0  0  0  0  0  # atno 17370 bound_to 10713
  156.0519  130.3716  150.1182 LP  0  0  0  0  0  0  0  0  0  0  0  0  # atno 17371 bound_to 10713
  141.0864  133.6732  156.2445 LP  0  0  0  0  0  0  0  0  0  0  0  0  # atno 17394 bound_to 11000
  140.6260  134.5313  157.5553 LP  0  0  0  0  0  0  0  0  0  0  0  0  # atno 17395 bound_to 11000

$$$$
