AV-unprocessed.smi:671|AV-procd|sdf|3286|dock8
  -GOLD-   22720 0243D 1   1.00000     0.00000
 Structure written by MMmdl.
 50 51  0  0  0  0  0  0  0  0  2 V2000
  147.5733  141.7377  153.9751 C   0  0  0  0  0  0  0  0  0  0  0  0
  148.7810  141.4061  154.7859 C   0  0  0  0  0  0  0  0  0  0  0  0
  149.4074  142.2812  155.6172 N   0  3  0  0  0  0  0  0  0  0  0  0
  150.4581  141.6916  156.2042 N   0  0  0  0  0  0  0  0  0  0  0  0
  151.2765  142.4599  157.1424 C   0  0  0  0  0  0  0  0  0  0  0  0
  150.5713  140.4012  155.7809 C   0  0  0  0  0  0  0  0  0  0  0  0
  151.6364  139.4551  156.2297 C   0  0  0  0  0  0  0  0  0  0  0  0
  149.5150  140.2169  154.8800 C   0  0  0  0  0  0  0  0  0  0  0  0
  149.2221  138.9457  154.1289 C   0  0  0  0  0  0  0  0  0  0  0  0
  148.1059  138.0993  154.7745 C   0  0  1  0  0  0  0  0  0  0  0  0
  146.9076  138.9603  155.1957 C   0  0  0  0  0  0  0  0  0  0  0  0
  147.6550  137.0595  153.8429 N   0  0  0  0  0  0  0  0  0  0  0  0
  146.7158  136.1116  154.0133 C   0  0  0  0  0  0  0  0  0  0  0  0
  146.0995  136.0025  155.0711 O   0  0  0  0  0  0  0  0  0  0  0  0
  146.5325  135.2993  152.9592 N   0  0  0  0  0  0  0  0  0  0  0  0
  145.5768  134.1933  152.8837 C   0  0  2  0  0  0  0  0  0  0  0  0
  146.2973  132.8992  152.4520 C   0  0  0  0  0  0  0  0  0  0  0  0
  145.6272  132.4336  151.1546 C   0  0  0  0  0  0  0  0  0  0  0  0
  144.9546  133.6797  150.5863 C   0  0  0  0  0  0  0  0  0  0  0  0
  144.4725  134.4326  151.8270 C   0  0  2  0  0  0  0  0  0  0  0  0
  144.0836  135.8940  151.5473 C   0  0  0  0  0  0  0  0  0  0  0  0
  147.8234  141.7514  152.9142 H   0  0  0  0  0  0  0  0  0  0  0  0
  147.1829  142.7177  154.2507 H   0  0  0  0  0  0  0  0  0  0  0  0
  146.7920  140.9959  154.1410 H   0  0  0  0  0  0  0  0  0  0  0  0
  152.2893  142.5412  156.7470 H   0  0  0  0  0  0  0  0  0  0  0  0
  151.2997  141.9412  158.1011 H   0  0  0  0  0  0  0  0  0  0  0  0
  150.8593  143.4585  157.2798 H   0  0  0  0  0  0  0  0  0  0  0  0
  151.7235  138.6147  155.5417 H   0  0  0  0  0  0  0  0  0  0  0  0
  151.4007  139.0697  157.2213 H   0  0  0  0  0  0  0  0  0  0  0  0
  152.6010  139.9613  156.2721 H   0  0  0  0  0  0  0  0  0  0  0  0
  148.9436  139.1833  153.1015 H   0  0  0  0  0  0  0  0  0  0  0  0
  150.1288  138.3450  154.0475 H   0  0  0  0  0  0  0  0  0  0  0  0
  148.5211  137.6596  155.6815 H   0  0  0  0  0  0  0  0  0  0  0  0
  147.2093  139.7340  155.9023 H   0  0  0  0  0  0  0  0  0  0  0  0
  146.1406  138.3547  155.6799 H   0  0  0  0  0  0  0  0  0  0  0  0
  146.4501  139.4538  154.3374 H   0  0  0  0  0  0  0  0  0  0  0  0
  148.1963  136.9861  152.9936 H   0  0  0  0  0  0  0  0  0  0  0  0
  147.1017  135.4571  152.1406 H   0  0  0  0  0  0  0  0  0  0  0  0
  145.1106  134.0359  153.8579 H   0  0  0  0  0  0  0  0  0  0  0  0
  147.3587  133.0794  152.2734 H   0  0  0  0  0  0  0  0  0  0  0  0
  146.2331  132.1293  153.2222 H   0  0  0  0  0  0  0  0  0  0  0  0
  146.3338  131.9840  150.4560 H   0  0  0  0  0  0  0  0  0  0  0  0
  144.8683  131.6841  151.3844 H   0  0  0  0  0  0  0  0  0  0  0  0
  145.6870  134.2788  150.0427 H   0  0  0  0  0  0  0  0  0  0  0  0
  144.1428  133.4386  149.8993 H   0  0  0  0  0  0  0  0  0  0  0  0
  143.5770  133.9204  152.1831 H   0  0  0  0  0  0  0  0  0  0  0  0
  144.9130  136.4478  151.1104 H   0  0  0  0  0  0  0  0  0  0  0  0
  143.7808  136.4044  152.4619 H   0  0  0  0  0  0  0  0  0  0  0  0
  143.2504  135.9471  150.8465 H   0  0  0  0  0  0  0  0  0  0  0  0
  149.1718  143.2462  155.8125 H   0  0  0  0  0  0  0  0  0  0  0  0
  1  2  1  0  0  0  0
  1 22  1  0  0  0  0
  1 23  1  0  0  0  0
  1 24  1  0  0  0  0
  2  8  1  0  0  0  0
  2  3  2  0  0  0  0
  3  4  1  0  0  0  0
  3 50  1  0  0  0  0
  4  5  1  0  0  0  0
  4  6  1  0  0  0  0
  5 25  1  0  0  0  0
  5 26  1  0  0  0  0
  5 27  1  0  0  0  0
  6  7  1  0  0  0  0
  6  8  2  0  0  0  0
  7 28  1  0  0  0  0
  7 29  1  0  0  0  0
  7 30  1  0  0  0  0
  8  9  1  0  0  0  0
  9 10  1  0  0  0  0
  9 31  1  0  0  0  0
  9 32  1  0  0  0  0
 10 11  1  0  0  0  0
 10 12  1  0  0  0  0
 10 33  1  0  0  0  0
 11 34  1  0  0  0  0
 11 35  1  0  0  0  0
 11 36  1  0  0  0  0
 12 13  1  0  0  0  0
 12 37  1  0  0  0  0
 13 14  2  0  0  0  0
 13 15  1  0  0  0  0
 15 16  1  0  0  0  0
 15 38  1  0  0  0  0
 16 20  1  0  0  0  0
 16 17  1  0  0  0  0
 16 39  1  0  0  0  0
 17 18  1  0  0  0  0
 17 40  1  0  0  0  0
 17 41  1  0  0  0  0
 18 19  1  0  0  0  0
 18 42  1  0  0  0  0
 18 43  1  0  0  0  0
 19 20  1  0  0  0  0
 19 44  1  0  0  0  0
 19 45  1  0  0  0  0
 20 21  1  0  0  0  0
 20 46  1  0  0  0  0
 21 47  1  0  0  0  0
 21 48  1  0  0  0  0
 21 49  1  0  0  0  0
M  CHG  1   3   1
M  END
> <s_m_source_file>
AV-unprocessed.smi

> <i_m_source_file_index>
671

> <i_lp_mmshare_version>
43012

> <i_f3d_flags>
0

> <s_epik_input>
W0NIM11jMW5uKFtDSDNdKWMoW0NIM10pYzFbQ0gyXVtDQEhdKFtDSDNdKVtOSF1DKD1PKVtOSF1bQ0BASF0yW0NIMl1bQ0gyXVtDSDJdW0NASF0yW0NIM10=

> <s_epik_cmdline>
J2VwaWtfcHl0aG9uJywgJy1waCcsICc3LjAnLCAnLXRuJywgJzgnLCAnLW1hJywgJzIwMCcsICctbWV0YWxfYmluZGluZycsICctaW1hZScsICc8aW5maWxlLm1hZT4nLCAnLW9tYWUnLCAnPG91dGZpbGUubWFlPic=

> <r_lp_tautomer_probability>
1

> <r_epik_Ionization_Penalty>
2.28705

> <r_epik_Ionization_Penalty_Charging>
2.28698

> <r_epik_Ionization_Penalty_Neutral>
6.23157e-05

> <r_epik_State_Penalty>
2.43671

> <r_epik_Charging_Adjusted_Penalty>
4.72369

> <i_epik_Tot_Q>
1

> <i_epik_Tot_abs_Q>
1

> <r_epik_Metal_State_Penalty>
2.44911

> <b_epik_Metal_Only>
0

> <s_lp_Force_Field>
OPLS_2005

> <r_lp_Energy>
35.2288

> <b_lp_Chiralities_Consistent>
1

> <s_lp_Variant>
AV-unprocessed.smi:671-14

> <Gold.Version>
5.8.1

> <Gold.Id.Protein>
6NUR|6NUR_protein|mol2

> <Gold.PLP.Fitness>
45.5302

> <Gold.PLP.PLP>
-35.4244

> <Gold.PLP.part.hbond>
-2.7204

> <Gold.PLP.part.metal>
0.0000

> <Gold.PLP.part.buried>
-4.7263

> <Gold.PLP.part.nonpolar>
-28.5456

> <Gold.PLP.part.repulsive>
0.1952

> <Gold.PLP.ligand.clash>
0.0000

> <Gold.PLP.ligand.torsion>
0.4403

> <Gold.PLP.Chemscore.Hbond>
3.6545

> <Gold.PLP.Chemscore.CHOScore>
0.0000

> <Gold.PLP.Chemscore.Metal>
0.0000

> <Gold.Chemscore.Hbonds>
donor molecule, donor type, donor heavy atom, donor atom, acceptor molecule, acceptor atom, score
      L1  H     3    50       P1  8028  1.89
      L1  H    12    37       P1  7948  1.00
      L1  H    15    38       P1  7948  0.69

> <Gold.PLP.Chemscore.Internal.Correction>
0.0229

> <Gold.Rescore>
     Score         DG    S(hbond)    S(metal)    S(lipo)     H(rot)  DE(clash)    DE(int)     intcor
     19.69     -20.12       2.69        0.00      81.31       1.51       0.01       0.42       ----

> <Gold.Chemscore.Fitness>
19.6874

> <Gold.Chemscore.DG>
-20.1198

> <Gold.Chemscore.ZeroCoef>
-5.4800

> <Gold.Chemscore.Hbond>
2.6891

> <Gold.Chemscore.Metal>
0.0000

> <Gold.Chemscore.Lipo>
81.3067

> <Gold.Chemscore.Internal_Hbond>
0.0000

> <Gold.Chemscore.DEClash>
0.0126

> <Gold.Chemscore.DEInternal>
0.4198

> <Gold.Chemscore.Rot>
1.5057

> <Gold.Chemscore.Internal.Correction>
   9.000000E+99

> <Gold.Chemscore.Hbonds>
donor molecule, donor type, donor heavy atom, donor atom, acceptor molecule, acceptor atom, score
      L1  H     3    50       P1  8028  0.90
      L1  H    12    37       P1  7948  0.94
      L1  H    15    38       P1  7948  0.67

> <Gold.Chemscore.Hbond.Weighted>
-8.9816

> <Gold.Chemscore.Metal.Weighted>
-0.0000

> <Gold.Chemscore.Lipo.Weighted>
-9.5129

> <Gold.Chemscore.Internal_Hbond.Weighted>
0.0000

> <Gold.Chemscore.DEClash.Weighted>
0.0126

> <Gold.Chemscore.DEInternal.Weighted>
0.4198

> <Gold.Chemscore.Rot.Weighted>
3.8547

> <Gold.Chemscore.Internal.Correction.Weighted>
   9.000000E+99

> <Gold.Protein.RotatedTorsions>
[ 6907 6896 6895 6894 ] final   21.32 input  -60.11 | X-H torsion
[ 7974 7965 7964 7962 ] final   14.22 input  175.53 | X-H torsion
[ 8008 7997 7996 7995 ] final   88.50 input   59.86 | X-H torsion
[ 10167 10162 10161 10158 ] final   95.72 input  -65.29 | X-H torsion
[ 10718 10713 10712 10709 ] final   44.90 input   66.30 | X-H torsion
[ 10763 10752 10751 10750 ] final -162.05 input  -60.55 | X-H torsion
[ 11005 11000 10999 10996 ] final   83.41 input  -57.11 | X-H torsion

> <Gold.Protein.ActiveResidues>
 VAL166  LYS551  ARG553  GLY616  TRP617  ASP618  TYR619  PRO620  LYS621  CYS622 
 ASP623  PHE694  ASN695  SER759  ASP760  ASP761  ALA762  ILE779  LEU786  VAL792 
 PHE793  MET794  SER795  GLU796  ALA797  LYS798  CYS799  TRP800  GLU811  SER814 

> <Gold.Protein.RotatedAtoms>
  151.9101  135.0342  160.0513 H   0  0  0  0  0  0  0  0  0  0  0  0  # atno 6907 bound_to 6896
  152.2287  133.5036  159.5211 H   0  0  0  0  0  0  0  0  0  0  0  0  # atno 6908 bound_to 6896
  150.7019  134.1162  159.4061 H   0  0  0  0  0  0  0  0  0  0  0  0  # atno 6909 bound_to 6896
  146.2310  139.9073  142.8530 H   0  0  0  0  0  0  0  0  0  0  0  0  # atno 7974 bound_to 7965
  155.9885  140.3371  155.6730 H   0  0  0  0  0  0  0  0  0  0  0  0  # atno 8008 bound_to 7997
  155.6452  140.0699  157.2623 H   0  0  0  0  0  0  0  0  0  0  0  0  # atno 8009 bound_to 7997
  154.4212  140.1735  156.1603 H   0  0  0  0  0  0  0  0  0  0  0  0  # atno 8010 bound_to 7997
  139.7962  144.6832  150.9826 H   0  0  0  0  0  0  0  0  0  0  0  0  # atno 10167 bound_to 10162
  157.4318  130.8029  149.7610 H   0  0  0  0  0  0  0  0  0  0  0  0  # atno 10718 bound_to 10713
  154.7249  135.3033  154.8987 H   0  0  0  0  0  0  0  0  0  0  0  0  # atno 10763 bound_to 10752
  153.9848  135.6726  153.4755 H   0  0  0  0  0  0  0  0  0  0  0  0  # atno 10764 bound_to 10752
  153.0866  135.4981  154.8527 H   0  0  0  0  0  0  0  0  0  0  0  0  # atno 10765 bound_to 10752
  139.9032  134.8143  156.2306 H   0  0  0  0  0  0  0  0  0  0  0  0  # atno 11005 bound_to 11000
  145.2265  140.9956  143.4015 LP  0  0  0  0  0  0  0  0  0  0  0  0  # atno 17320 bound_to 7965
  144.9566  139.4024  143.6376 LP  0  0  0  0  0  0  0  0  0  0  0  0  # atno 17321 bound_to 7965
  140.7820  143.4329  151.0667 LP  0  0  0  0  0  0  0  0  0  0  0  0  # atno 17342 bound_to 10162
  139.8003  143.8093  152.3162 LP  0  0  0  0  0  0  0  0  0  0  0  0  # atno 17343 bound_to 10162
  155.9916  130.3936  150.2978 LP  0  0  0  0  0  0  0  0  0  0  0  0  # atno 17370 bound_to 10713
  157.1136  131.0228  151.3038 LP  0  0  0  0  0  0  0  0  0  0  0  0  # atno 17371 bound_to 10713
  141.0348  133.6969  156.1493 LP  0  0  0  0  0  0  0  0  0  0  0  0  # atno 17394 bound_to 11000
  140.7043  134.4530  157.5585 LP  0  0  0  0  0  0  0  0  0  0  0  0  # atno 17395 bound_to 11000

$$$$
