AV-unprocessed.smi:503|AV-procd|sdf|2746|dock6
  -GOLD-   2262023213D 1   1.00000     0.00000
 Structure written by MMmdl.
 44 45  0  0  0  0  0  0  0  0  1 V2000
  150.8935  137.0701  159.5458 O   0  0  0  0  0  0  0  0  0  0  0  0
  150.1852  137.7349  158.7881 C   0  0  0  0  0  0  0  0  0  0  0  0
  148.7029  137.3889  158.5858 C   0  0  0  0  0  0  0  0  0  0  0  0
  148.3557  136.0237  159.0152 N   0  0  0  0  0  0  0  0  0  0  0  0
  147.7444  135.8851  160.2770 C   0  0  0  0  0  0  0  0  0  0  0  0
  147.3844  134.6929  160.7903 C   0  0  0  0  0  0  0  0  0  0  0  0
  146.6699  134.5797  162.1282 C   0  0  0  0  0  0  0  0  0  0  0  0
  146.4324  133.3050  162.4386 F   0  0  0  0  0  0  0  0  0  0  0  0
  147.4258  135.1074  163.0902 F   0  0  0  0  0  0  0  0  0  0  0  0
  145.5060  135.2307  162.1116 F   0  0  0  0  0  0  0  0  0  0  0  0
  147.6288  133.5319  159.9572 C   0  0  0  0  0  0  0  0  0  0  0  0
  148.2003  133.6480  158.7423 C   0  0  0  0  0  0  0  0  0  0  0  0
  148.6026  134.9502  158.2058 C   0  0  0  0  0  0  0  0  0  0  0  0
  149.1272  135.0687  157.0982 O   0  0  0  0  0  0  0  0  0  0  0  0
  150.6432  138.7783  158.0796 N   0  0  0  0  0  0  0  0  0  0  0  0
  152.0128  139.2880  158.1006 C   0  0  0  0  0  0  0  0  0  0  0  0
  152.4952  139.3780  159.5646 C   0  0  0  0  0  0  0  0  0  0  0  0
  153.8342  140.1118  159.7807 C   0  0  0  0  0  0  0  0  0  0  0  0
  153.6965  141.5475  160.3281 C   0  0  0  0  0  0  0  0  0  0  0  0
  153.1019  142.6041  159.3743 C   0  0  0  0  0  0  0  0  0  0  0  0
  151.6032  142.4201  159.0586 C   0  0  0  0  0  0  0  0  0  0  0  0
  151.2863  141.7918  157.6874 C   0  0  0  0  0  0  0  0  0  0  0  0
  152.1394  140.5809  157.2603 C   0  0  0  0  0  0  0  0  0  0  0  0
  148.0881  138.1186  159.1165 H   0  0  0  0  0  0  0  0  0  0  0  0
  148.4621  137.5285  157.5311 H   0  0  0  0  0  0  0  0  0  0  0  0
  147.5765  136.8164  160.7983 H   0  0  0  0  0  0  0  0  0  0  0  0
  147.3514  132.5511  160.3145 H   0  0  0  0  0  0  0  0  0  0  0  0
  148.3677  132.7607  158.1494 H   0  0  0  0  0  0  0  0  0  0  0  0
  149.9914  139.2608  157.4777 H   0  0  0  0  0  0  0  0  0  0  0  0
  152.6548  138.5468  157.6202 H   0  0  0  0  0  0  0  0  0  0  0  0
  151.7254  139.8015  160.2083 H   0  0  0  0  0  0  0  0  0  0  0  0
  152.6108  138.3552  159.9264 H   0  0  0  0  0  0  0  0  0  0  0  0
  154.4005  139.5458  160.5213 H   0  0  0  0  0  0  0  0  0  0  0  0
  154.4522  140.0905  158.8832 H   0  0  0  0  0  0  0  0  0  0  0  0
  153.1208  141.5293  161.2543 H   0  0  0  0  0  0  0  0  0  0  0  0
  154.6920  141.8872  160.6160 H   0  0  0  0  0  0  0  0  0  0  0  0
  153.2147  143.5704  159.8671 H   0  0  0  0  0  0  0  0  0  0  0  0
  153.6936  142.6862  158.4625 H   0  0  0  0  0  0  0  0  0  0  0  0
  151.1085  141.8711  159.8582 H   0  0  0  0  0  0  0  0  0  0  0  0
  151.1289  143.4018  159.0756 H   0  0  0  0  0  0  0  0  0  0  0  0
  150.2281  141.5314  157.6489 H   0  0  0  0  0  0  0  0  0  0  0  0
  151.4204  142.5648  156.9298 H   0  0  0  0  0  0  0  0  0  0  0  0
  153.1851  140.8727  157.1803 H   0  0  0  0  0  0  0  0  0  0  0  0
  151.8602  140.3381  156.2341 H   0  0  0  0  0  0  0  0  0  0  0  0
  1  2  2  0  0  0  0
  2  3  1  0  0  0  0
  2 15  1  0  0  0  0
  3  4  1  0  0  0  0
  3 24  1  0  0  0  0
  3 25  1  0  0  0  0
  4 13  1  0  0  0  0
  4  5  1  0  0  0  0
  5  6  2  0  0  0  0
  5 26  1  0  0  0  0
  6  7  1  0  0  0  0
  6 11  1  0  0  0  0
  7  8  1  0  0  0  0
  7  9  1  0  0  0  0
  7 10  1  0  0  0  0
 11 12  2  0  0  0  0
 11 27  1  0  0  0  0
 12 13  1  0  0  0  0
 12 28  1  0  0  0  0
 13 14  2  0  0  0  0
 15 16  1  0  0  0  0
 15 29  1  0  0  0  0
 16 23  1  0  0  0  0
 16 17  1  0  0  0  0
 16 30  1  0  0  0  0
 17 18  1  0  0  0  0
 17 31  1  0  0  0  0
 17 32  1  0  0  0  0
 18 19  1  0  0  0  0
 18 33  1  0  0  0  0
 18 34  1  0  0  0  0
 19 20  1  0  0  0  0
 19 35  1  0  0  0  0
 19 36  1  0  0  0  0
 20 21  1  0  0  0  0
 20 37  1  0  0  0  0
 20 38  1  0  0  0  0
 21 22  1  0  0  0  0
 21 39  1  0  0  0  0
 21 40  1  0  0  0  0
 22 23  1  0  0  0  0
 22 41  1  0  0  0  0
 22 42  1  0  0  0  0
 23 43  1  0  0  0  0
 23 44  1  0  0  0  0
M  END
> <s_m_source_file>
AV-unprocessed.smi

> <i_m_source_file_index>
503

> <i_lp_mmshare_version>
43012

> <i_f3d_flags>
0

> <s_epik_input>
Tz1jMVtjSF1bY0hdYyhDKEYpKEYpRilbY0hdbjFbQ0gyXUMoPU8pW05IXVtDSF0yW0NIMl1bQ0gyXVtDSDJdW0NIMl1bQ0gyXVtDSDJdW0NIMl0y

> <s_epik_cmdline>
J2VwaWtfcHl0aG9uJywgJy1waCcsICc3LjAnLCAnLXRuJywgJzgnLCAnLW1hJywgJzIwMCcsICctbWV0YWxfYmluZGluZycsICctaW1hZScsICc8aW5maWxlLm1hZT4nLCAnLW9tYWUnLCAnPG91dGZpbGUubWFlPic=

> <r_lp_tautomer_probability>
1

> <r_epik_Ionization_Penalty>
3.93819e-08

> <r_epik_Ionization_Penalty_Charging>
1.9167e-08

> <r_epik_Ionization_Penalty_Neutral>
2.02148e-08

> <r_epik_State_Penalty>
-0

> <r_epik_Charging_Adjusted_Penalty>
1.9167e-08

> <i_epik_Tot_Q>
0

> <i_epik_Tot_abs_Q>
0

> <r_epik_Metal_State_Penalty>
-0

> <b_epik_Metal_Only>
0

> <s_lp_Force_Field>
OPLS_2005

> <r_lp_Energy>
31.4462

> <b_lp_Chiralities_Consistent>
1

> <s_lp_Variant>
AV-unprocessed.smi:503-1

> <Gold.Version>
5.8.1

> <Gold.Id.Protein>
6NUR|6NUR_protein|mol2

> <Gold.PLP.Fitness>
42.9277

> <Gold.PLP.PLP>
-41.2168

> <Gold.PLP.part.hbond>
-0.9812

> <Gold.PLP.part.metal>
0.0000

> <Gold.PLP.part.buried>
-4.6610

> <Gold.PLP.part.nonpolar>
-34.9923

> <Gold.PLP.part.repulsive>
0.0690

> <Gold.PLP.ligand.clash>
0.0000

> <Gold.PLP.ligand.torsion>
0.6808

> <Gold.PLP.Chemscore.Hbond>
0.9913

> <Gold.PLP.Chemscore.CHOScore>
0.0000

> <Gold.PLP.Chemscore.Metal>
0.0000

> <Gold.Chemscore.Hbonds>
donor molecule, donor type, donor heavy atom, donor atom, acceptor molecule, acceptor atom, score
      P1  H  6896  6908       L1     1  1.00

> <Gold.PLP.Chemscore.Internal.Correction>
0.0988

> <Gold.Rescore>
     Score         DG    S(hbond)    S(metal)    S(lipo)     H(rot)  DE(clash)    DE(int)     intcor
     13.48     -15.72       0.99        0.00      92.49       1.51       0.03       2.21       ----

> <Gold.Chemscore.Fitness>
13.4815

> <Gold.Chemscore.DG>
-15.7220

> <Gold.Chemscore.ZeroCoef>
-5.4800

> <Gold.Chemscore.Hbond>
0.9863

> <Gold.Chemscore.Metal>
0.0000

> <Gold.Chemscore.Lipo>
92.4879

> <Gold.Chemscore.Internal_Hbond>
0.0000

> <Gold.Chemscore.DEClash>
0.0286

> <Gold.Chemscore.DEInternal>
2.2119

> <Gold.Chemscore.Rot>
1.5131

> <Gold.Chemscore.Internal.Correction>
   9.000000E+99

> <Gold.Chemscore.Hbonds>
donor molecule, donor type, donor heavy atom, donor atom, acceptor molecule, acceptor atom, score
      P1  H  6896  6908       L1     1  0.96

> <Gold.Chemscore.Hbond.Weighted>
-3.2944

> <Gold.Chemscore.Metal.Weighted>
-0.0000

> <Gold.Chemscore.Lipo.Weighted>
-10.8211

> <Gold.Chemscore.Internal_Hbond.Weighted>
0.0000

> <Gold.Chemscore.DEClash.Weighted>
0.0286

> <Gold.Chemscore.DEInternal.Weighted>
2.2119

> <Gold.Chemscore.Rot.Weighted>
3.8734

> <Gold.Chemscore.Internal.Correction.Weighted>
   9.000000E+99

> <Gold.Protein.RotatedTorsions>
[ 6907 6896 6895 6894 ] final -139.17 input  -60.11 | X-H torsion
[ 7974 7965 7964 7962 ] final -166.55 input  175.53 | X-H torsion
[ 8008 7997 7996 7995 ] final -174.25 input   59.86 | X-H torsion
[ 10167 10162 10161 10158 ] final  160.09 input  -65.29 | X-H torsion
[ 10718 10713 10712 10709 ] final   96.51 input   66.30 | X-H torsion
[ 10763 10752 10751 10750 ] final  -70.63 input  -60.55 | X-H torsion
[ 11005 11000 10999 10996 ] final    8.03 input  -57.11 | X-H torsion

> <Gold.Protein.ActiveResidues>
 VAL166  LYS551  ARG553  GLY616  TRP617  ASP618  TYR619  PRO620  LYS621  CYS622 
 ASP623  PHE694  ASN695  SER759  ASP760  ASP761  ALA762  ILE779  LEU786  VAL792 
 PHE793  MET794  SER795  GLU796  ALA797  LYS798  CYS799  TRP800  GLU811  SER814 

> <Gold.Protein.RotatedAtoms>
  151.0444  133.5678  159.2647 H   0  0  0  0  0  0  0  0  0  0  0  0  # atno 6907 bound_to 6896
  151.2712  135.0684  159.9145 H   0  0  0  0  0  0  0  0  0  0  0  0  # atno 6908 bound_to 6896
  152.5370  134.0174  159.8020 H   0  0  0  0  0  0  0  0  0  0  0  0  # atno 6909 bound_to 6896
  144.7243  140.2649  143.6259 H   0  0  0  0  0  0  0  0  0  0  0  0  # atno 7974 bound_to 7965
  155.9677  140.1157  157.0840 H   0  0  0  0  0  0  0  0  0  0  0  0  # atno 8008 bound_to 7997
  154.4148  140.1169  156.5331 H   0  0  0  0  0  0  0  0  0  0  0  0  # atno 8009 bound_to 7997
  155.6638  140.3473  155.4795 H   0  0  0  0  0  0  0  0  0  0  0  0  # atno 8010 bound_to 7997
  139.4837  144.4667  151.8632 H   0  0  0  0  0  0  0  0  0  0  0  0  # atno 10167 bound_to 10162
  157.6926  131.0580  150.4503 H   0  0  0  0  0  0  0  0  0  0  0  0  # atno 10718 bound_to 10713
  154.4204  135.5988  153.6006 H   0  0  0  0  0  0  0  0  0  0  0  0  # atno 10763 bound_to 10752
  152.9793  135.5951  154.3962 H   0  0  0  0  0  0  0  0  0  0  0  0  # atno 10764 bound_to 10752
  154.3786  135.2841  155.2203 H   0  0  0  0  0  0  0  0  0  0  0  0  # atno 10765 bound_to 10752
  140.5416  134.0369  155.7906 H   0  0  0  0  0  0  0  0  0  0  0  0  # atno 11005 bound_to 11000
  145.8099  139.1999  143.1999 LP  0  0  0  0  0  0  0  0  0  0  0  0  # atno 17320 bound_to 7965
  146.0605  140.7976  142.9737 LP  0  0  0  0  0  0  0  0  0  0  0  0  # atno 17321 bound_to 7965
  140.4133  144.2340  150.5888 LP  0  0  0  0  0  0  0  0  0  0  0  0  # atno 17342 bound_to 10162
  140.4945  143.2337  151.8770 LP  0  0  0  0  0  0  0  0  0  0  0  0  # atno 17343 bound_to 10162
  156.4854  130.4083  149.6437 LP  0  0  0  0  0  0  0  0  0  0  0  0  # atno 17370 bound_to 10713
  156.3467  130.7410  151.2364 LP  0  0  0  0  0  0  0  0  0  0  0  0  # atno 17371 bound_to 10713
  141.1224  133.9440  157.2704 LP  0  0  0  0  0  0  0  0  0  0  0  0  # atno 17394 bound_to 11000
  139.9501  135.0177  156.8968 LP  0  0  0  0  0  0  0  0  0  0  0  0  # atno 17395 bound_to 11000

$$$$
