AV-unprocessed.smi:2027|AV-procd|sdf|8211|dock3
  -GOLD-   2272010473D 1   1.00000     0.00000
 Structure written by MMmdl.
 50 52  0  0  0  0  0  0  0  0  2 V2000
  152.3991  143.0558  160.5621 C   0  0  0  0  0  0  0  0  0  0  0  0
  152.0081  142.3726  159.2634 C   0  0  0  0  0  0  0  0  0  0  0  0
  152.6380  141.1581  158.9092 C   0  0  0  0  0  0  0  0  0  0  0  0
  152.3032  140.4913  157.7106 C   0  0  0  0  0  0  0  0  0  0  0  0
  152.7887  139.3123  157.1714 N   0  0  0  0  0  0  0  0  0  0  0  0
  152.0879  139.2233  156.0449 C   0  0  0  0  0  0  0  0  0  0  0  0
  151.2058  140.2083  155.7880 N   0  0  0  0  0  0  0  0  0  0  0  0
  150.3400  140.3260  154.6283 C   0  0  0  0  0  0  0  0  0  0  0  0
  149.4359  139.0925  154.4395 C   0  0  2  0  0  0  0  0  0  0  0  0
  150.2008  138.0217  153.9181 O   0  0  0  0  0  0  0  0  0  0  0  0
  148.2774  139.3794  153.4663 C   0  0  0  0  0  0  0  0  0  0  0  0
  147.4449  138.1712  153.2227 N   0  3  1  0  0  0  0  0  0  0  0  0
  146.9386  137.5646  154.4757 C   0  0  0  0  0  0  0  0  0  0  0  0
  146.3611  138.3860  152.2315 C   0  0  0  0  0  0  0  0  0  0  0  0
  145.4243  137.2080  152.1802 C   0  0  0  0  0  0  0  0  0  0  0  0
  144.0500  137.1705  152.5530 C   0  0  0  0  0  0  0  0  0  0  0  0
  143.5077  135.9741  152.4000 N   0  0  0  0  0  0  0  0  0  0  0  0
  144.5086  135.2099  151.9174 N   0  0  0  0  0  0  0  0  0  0  0  0
  144.2624  133.8142  151.6239 C   0  0  0  0  0  0  0  0  0  0  0  0
  145.6763  135.9275  151.7731 C   0  0  0  0  0  0  0  0  0  0  0  0
  151.3118  141.0763  156.8698 C   0  0  0  0  0  0  0  0  0  0  0  0
  150.6783  142.2844  157.2109 C   0  0  0  0  0  0  0  0  0  0  0  0
  151.0272  142.9395  158.4103 C   0  0  0  0  0  0  0  0  0  0  0  0
  150.3409  144.2465  158.7663 C   0  0  0  0  0  0  0  0  0  0  0  0
  153.0991  142.4483  161.1366 H   0  0  0  0  0  0  0  0  0  0  0  0
  151.5211  143.2295  161.1846 H   0  0  0  0  0  0  0  0  0  0  0  0
  152.8754  144.0152  160.3586 H   0  0  0  0  0  0  0  0  0  0  0  0
  153.3871  140.7276  159.5575 H   0  0  0  0  0  0  0  0  0  0  0  0
  152.2249  138.3948  155.3651 H   0  0  0  0  0  0  0  0  0  0  0  0
  149.7314  141.2237  154.7464 H   0  0  0  0  0  0  0  0  0  0  0  0
  150.9612  140.4865  153.7459 H   0  0  0  0  0  0  0  0  0  0  0  0
  149.0467  138.7914  155.4123 H   0  0  0  0  0  0  0  0  0  0  0  0
  149.6667  137.5417  153.3024 H   0  0  0  0  0  0  0  0  0  0  0  0
  147.6460  140.1842  153.8459 H   0  0  0  0  0  0  0  0  0  0  0  0
  148.7012  139.7535  152.5339 H   0  0  0  0  0  0  0  0  0  0  0  0
  146.2342  138.2311  154.9751 H   0  0  0  0  0  0  0  0  0  0  0  0
  147.7513  137.3475  155.1682 H   0  0  0  0  0  0  0  0  0  0  0  0
  146.4281  136.6232  154.2692 H   0  0  0  0  0  0  0  0  0  0  0  0
  145.8010  139.2821  152.5025 H   0  0  0  0  0  0  0  0  0  0  0  0
  146.8023  138.5927  151.2551 H   0  0  0  0  0  0  0  0  0  0  0  0
  143.4358  137.9725  152.9354 H   0  0  0  0  0  0  0  0  0  0  0  0
  145.1634  133.3520  151.2192 H   0  0  0  0  0  0  0  0  0  0  0  0
  143.4595  133.7265  150.8908 H   0  0  0  0  0  0  0  0  0  0  0  0
  143.9738  133.2906  152.5359 H   0  0  0  0  0  0  0  0  0  0  0  0
  146.5817  135.4718  151.3992 H   0  0  0  0  0  0  0  0  0  0  0  0
  149.9323  142.7052  156.5530 H   0  0  0  0  0  0  0  0  0  0  0  0
  149.6818  144.5809  157.9646 H   0  0  0  0  0  0  0  0  0  0  0  0
  151.0761  145.0321  158.9416 H   0  0  0  0  0  0  0  0  0  0  0  0
  149.7393  144.1268  159.6677 H   0  0  0  0  0  0  0  0  0  0  0  0
  148.0618  137.4893  152.8036 H   0  0  0  0  0  0  0  0  0  0  0  0
  1  2  1  0  0  0  0
  1 25  1  0  0  0  0
  1 26  1  0  0  0  0
  1 27  1  0  0  0  0
  2 23  1  0  0  0  0
  2  3  2  0  0  0  0
  3  4  1  0  0  0  0
  3 28  1  0  0  0  0
  4 21  2  0  0  0  0
  4  5  1  0  0  0  0
  5  6  2  0  0  0  0
  6  7  1  0  0  0  0
  6 29  1  0  0  0  0
  7  8  1  0  0  0  0
  7 21  1  0  0  0  0
  8  9  1  0  0  0  0
  8 30  1  0  0  0  0
  8 31  1  0  0  0  0
  9 10  1  0  0  0  0
  9 11  1  0  0  0  0
  9 32  1  0  0  0  0
 10 33  1  0  0  0  0
 11 12  1  0  0  0  0
 11 34  1  0  0  0  0
 11 35  1  0  0  0  0
 12 13  1  0  0  0  0
 12 14  1  0  0  0  0
 12 50  1  0  0  0  0
 13 36  1  0  0  0  0
 13 37  1  0  0  0  0
 13 38  1  0  0  0  0
 14 15  1  0  0  0  0
 14 39  1  0  0  0  0
 14 40  1  0  0  0  0
 15 20  2  0  0  0  0
 15 16  1  0  0  0  0
 16 17  2  0  0  0  0
 16 41  1  0  0  0  0
 17 18  1  0  0  0  0
 18 19  1  0  0  0  0
 18 20  1  0  0  0  0
 19 42  1  0  0  0  0
 19 43  1  0  0  0  0
 19 44  1  0  0  0  0
 20 45  1  0  0  0  0
 21 22  1  0  0  0  0
 22 23  2  0  0  0  0
 22 46  1  0  0  0  0
 23 24  1  0  0  0  0
 24 47  1  0  0  0  0
 24 48  1  0  0  0  0
 24 49  1  0  0  0  0
M  CHG  1  12   1
M  END
> <s_m_source_file>
AV-unprocessed.smi

> <i_m_source_file_index>
2027

> <i_lp_mmshare_version>
43012

> <i_f3d_flags>
0

> <s_epik_input>
W0NIM11jKFtjSF0xKWMoW0NIM10pW2NIXWMoYzEyKW4oW2NIXW4yKVtDSDJdW0NASF0oW09IXSlbQ0gyXU4oW0NIM10pW0NIMl1jM1tjSF1ubihbQ0gzXSlbY0hdMw==

> <s_epik_cmdline>
J2VwaWtfcHl0aG9uJywgJy1waCcsICc3LjAnLCAnLXRuJywgJzgnLCAnLW1hJywgJzIwMCcsICctbWV0YWxfYmluZGluZycsICctaW1hZScsICc8aW5maWxlLm1hZT4nLCAnLW9tYWUnLCAnPG91dGZpbGUubWFlPic=

> <r_lp_tautomer_probability>
1

> <r_epik_Ionization_Penalty>
0.646578

> <r_epik_Ionization_Penalty_Charging>
0.559419

> <r_epik_Ionization_Penalty_Neutral>
0.087159

> <r_epik_State_Penalty>
0.661677

> <r_epik_Charging_Adjusted_Penalty>
1.2211

> <i_epik_Tot_Q>
1

> <i_epik_Tot_abs_Q>
1

> <r_epik_Metal_State_Penalty>
0.649174

> <b_epik_Metal_Only>
0

> <s_lp_Force_Field>
OPLS_2005

> <r_lp_Energy>
8.87495

> <b_lp_Chiralities_Consistent>
1

> <s_lp_Variant>
AV-unprocessed.smi:2027-3

> <Gold.Version>
5.8.1

> <Gold.Id.Protein>
6NUR|6NUR_protein|mol2

> <Gold.PLP.Fitness>
59.3546

> <Gold.PLP.PLP>
-43.2049

> <Gold.PLP.part.hbond>
-3.0857

> <Gold.PLP.part.metal>
0.0000

> <Gold.PLP.part.buried>
1.8003

> <Gold.PLP.part.nonpolar>
-42.0052

> <Gold.PLP.part.repulsive>
0.1916

> <Gold.PLP.ligand.clash>
0.0000

> <Gold.PLP.ligand.torsion>
0.2748

> <Gold.PLP.Chemscore.Hbond>
3.6000

> <Gold.PLP.Chemscore.CHOScore>
1.8965

> <Gold.PLP.Chemscore.Metal>
0.0000

> <Gold.Chemscore.Hbonds>
donor molecule, donor type, donor heavy atom, donor atom, acceptor molecule, acceptor atom, score
      L1  H    10    33       P1  7948  0.99
      L1  H    12    50       P1  7948  2.00
      P1  H  7997  8008       L1     5  0.65
      L1  C    16    41       P1 10175  0.96
      L1  C    20    45       P1  7948  0.96

> <Gold.PLP.Chemscore.Internal.Correction>
0.2098

> <Gold.Rescore>
     Score         DG    S(hbond)    S(metal)    S(lipo)     H(rot)  DE(clash)    DE(int)     intcor
     17.04     -19.08       1.93        0.00     115.82       2.50       1.72       0.32       ----

> <Gold.Chemscore.Fitness>
17.0379

> <Gold.Chemscore.DG>
-19.0776

> <Gold.Chemscore.ZeroCoef>
-5.4800

> <Gold.Chemscore.Hbond>
1.9337

> <Gold.Chemscore.Metal>
0.0000

> <Gold.Chemscore.Lipo>
115.8206

> <Gold.Chemscore.Internal_Hbond>
0.0000

> <Gold.Chemscore.DEClash>
1.7225

> <Gold.Chemscore.DEInternal>
0.3172

> <Gold.Chemscore.Rot>
2.5047

> <Gold.Chemscore.Internal.Correction>
   9.000000E+99

> <Gold.Chemscore.Hbonds>
donor molecule, donor type, donor heavy atom, donor atom, acceptor molecule, acceptor atom, score
      L1  H    10    33       P1  7948  0.72
      L1  H    12    50       P1  7948  1.00
      P1  H  7997  8008       L1     5  0.03

> <Gold.Chemscore.Hbond.Weighted>
-6.4586

> <Gold.Chemscore.Metal.Weighted>
-0.0000

> <Gold.Chemscore.Lipo.Weighted>
-13.5510

> <Gold.Chemscore.Internal_Hbond.Weighted>
0.0000

> <Gold.Chemscore.DEClash.Weighted>
1.7225

> <Gold.Chemscore.DEInternal.Weighted>
0.3172

> <Gold.Chemscore.Rot.Weighted>
6.4120

> <Gold.Chemscore.Internal.Correction.Weighted>
   9.000000E+99

> <Gold.Protein.RotatedTorsions>
[ 6907 6896 6895 6894 ] final  -57.79 input  -60.11 | X-H torsion
[ 7974 7965 7964 7962 ] final  106.30 input  175.53 | X-H torsion
[ 8008 7997 7996 7995 ] final  -65.83 input   59.86 | X-H torsion
[ 10167 10162 10161 10158 ] final   61.35 input  -65.29 | X-H torsion
[ 10718 10713 10712 10709 ] final  -49.51 input   66.30 | X-H torsion
[ 10763 10752 10751 10750 ] final  114.40 input  -60.55 | X-H torsion
[ 11005 11000 10999 10996 ] final  103.60 input  -57.11 | X-H torsion

> <Gold.Protein.ActiveResidues>
 VAL166  LYS551  ARG553  GLY616  TRP617  ASP618  TYR619  PRO620  LYS621  CYS622 
 ASP623  PHE694  ASN695  SER759  ASP760  ASP761  ALA762  ILE779  LEU786  VAL792 
 PHE793  MET794  SER795  GLU796  ALA797  LYS798  CYS799  TRP800  GLU811  SER814 

> <Gold.Protein.RotatedAtoms>
  150.8058  134.7182  159.6642 H   0  0  0  0  0  0  0  0  0  0  0  0  # atno 6907 bound_to 6896
  152.4177  134.6008  160.0009 H   0  0  0  0  0  0  0  0  0  0  0  0  # atno 6908 bound_to 6896
  151.6232  133.3300  159.3128 H   0  0  0  0  0  0  0  0  0  0  0  0  # atno 6909 bound_to 6896
  145.3084  139.2548  143.3776 H   0  0  0  0  0  0  0  0  0  0  0  0  # atno 7974 bound_to 7965
  154.4696  140.0925  156.7110 H   0  0  0  0  0  0  0  0  0  0  0  0  # atno 8008 bound_to 7997
  155.4762  140.3466  155.4314 H   0  0  0  0  0  0  0  0  0  0  0  0  # atno 8009 bound_to 7997
  156.1016  140.1423  156.9449 H   0  0  0  0  0  0  0  0  0  0  0  0  # atno 8010 bound_to 7997
  140.1557  144.4419  150.6735 H   0  0  0  0  0  0  0  0  0  0  0  0  # atno 10167 bound_to 10162
  156.1886  130.4152  149.9403 H   0  0  0  0  0  0  0  0  0  0  0  0  # atno 10718 bound_to 10713
  153.5067  135.3626  155.2566 H   0  0  0  0  0  0  0  0  0  0  0  0  # atno 10763 bound_to 10752
  154.8744  135.4013  154.3416 H   0  0  0  0  0  0  0  0  0  0  0  0  # atno 10764 bound_to 10752
  153.4062  135.7076  153.6458 H   0  0  0  0  0  0  0  0  0  0  0  0  # atno 10765 bound_to 10752
  139.8785  134.9269  156.5234 H   0  0  0  0  0  0  0  0  0  0  0  0  # atno 11005 bound_to 11000
  146.3127  140.3615  142.8665 LP  0  0  0  0  0  0  0  0  0  0  0  0  # atno 17320 bound_to 7965
  144.9036  140.7672  143.5852 LP  0  0  0  0  0  0  0  0  0  0  0  0  # atno 17321 bound_to 7965
  140.6675  143.2273  151.5708 LP  0  0  0  0  0  0  0  0  0  0  0  0  # atno 17342 bound_to 10162
  139.5405  144.2662  152.1340 LP  0  0  0  0  0  0  0  0  0  0  0  0  # atno 17343 bound_to 10162
  156.7151  130.8985  151.3613 LP  0  0  0  0  0  0  0  0  0  0  0  0  # atno 17370 bound_to 10713
  157.6915  130.9238  150.0526 LP  0  0  0  0  0  0  0  0  0  0  0  0  # atno 17371 bound_to 10713
  140.8434  133.8188  155.9097 LP  0  0  0  0  0  0  0  0  0  0  0  0  # atno 17394 bound_to 11000
  140.9215  134.2135  157.4923 LP  0  0  0  0  0  0  0  0  0  0  0  0  # atno 17395 bound_to 11000

$$$$
