AV-unprocessed.smi:885|AV-procd|sdf|4046|dock10
  -GOLD-   22720 1533D 1   1.00000     0.00000
 Structure written by MMmdl.
 39 41  0  0  0  0  0  0  0  0  1 V2000
  152.2571  143.4835  161.6401 C   0  0  0  0  0  0  0  0  0  0  0  0
  153.3623  142.5450  162.1571 C   0  0  0  0  0  0  0  0  0  0  0  0
  153.9752  141.5731  161.1335 C   0  0  0  0  0  0  0  0  0  0  0  0
  152.9767  140.9266  160.1583 C   0  0  0  0  0  0  0  0  0  0  0  0
  152.7100  141.7803  158.8995 C   0  0  0  0  0  0  0  0  0  0  0  0
  152.0972  140.9546  157.8083 C   0  0  0  0  0  0  0  0  0  0  0  0
  152.7749  139.9761  157.2190 N   0  0  0  0  0  0  0  0  0  0  0  0
  151.8691  139.4772  156.2722 O   0  0  0  0  0  0  0  0  0  0  0  0
  150.7379  140.2086  156.4184 C   0  0  0  0  0  0  0  0  0  0  0  0
  149.5898  139.9440  155.4980 C   0  0  2  0  0  0  0  0  0  0  0  0
  149.9471  138.9271  154.3967 C   0  0  0  0  0  0  0  0  0  0  0  0
  148.8244  138.7639  153.4746 N   0  0  0  0  0  0  0  0  0  0  0  0
  148.4068  140.0502  152.9190 C   0  0  0  0  0  0  0  0  0  0  0  0
  148.0956  141.0472  154.0501 C   0  0  0  0  0  0  0  0  0  0  0  0
  149.2342  141.1851  154.8933 O   0  0  0  0  0  0  0  0  0  0  0  0
  150.8307  141.1566  157.3489 N   0  0  0  0  0  0  0  0  0  0  0  0
  151.8896  143.0634  159.1392 C   0  0  0  0  0  0  0  0  0  0  0  0
  152.4551  144.0126  160.2102 C   0  0  0  0  0  0  0  0  0  0  0  0
  152.1898  144.3298  162.3249 H   0  0  0  0  0  0  0  0  0  0  0  0
  151.2906  142.9829  161.7103 H   0  0  0  0  0  0  0  0  0  0  0  0
  154.1702  143.1446  162.5779 H   0  0  0  0  0  0  0  0  0  0  0  0
  152.9583  141.9739  162.9937 H   0  0  0  0  0  0  0  0  0  0  0  0
  154.7603  142.0799  160.5711 H   0  0  0  0  0  0  0  0  0  0  0  0
  154.4869  140.7858  161.6880 H   0  0  0  0  0  0  0  0  0  0  0  0
  153.4174  139.9832  159.8324 H   0  0  0  0  0  0  0  0  0  0  0  0
  152.0466  140.6611  160.6624 H   0  0  0  0  0  0  0  0  0  0  0  0
  153.6845  142.1027  158.5281 H   0  0  0  0  0  0  0  0  0  0  0  0
  148.7533  139.5767  156.0958 H   0  0  0  0  0  0  0  0  0  0  0  0
  150.8267  139.2700  153.8501 H   0  0  0  0  0  0  0  0  0  0  0  0
  150.2090  137.9665  154.8407 H   0  0  0  0  0  0  0  0  0  0  0  0
  149.0915  138.1389  152.7209 H   0  0  0  0  0  0  0  0  0  0  0  0
  149.1960  140.4534  152.2835 H   0  0  0  0  0  0  0  0  0  0  0  0
  147.5305  139.9170  152.2847 H   0  0  0  0  0  0  0  0  0  0  0  0
  147.8479  142.0227  153.6315 H   0  0  0  0  0  0  0  0  0  0  0  0
  147.2320  140.7218  154.6325 H   0  0  0  0  0  0  0  0  0  0  0  0
  151.8302  143.6105  158.1973 H   0  0  0  0  0  0  0  0  0  0  0  0
  150.8609  142.8052  159.3940 H   0  0  0  0  0  0  0  0  0  0  0  0
  151.9173  144.9576  160.1258 H   0  0  0  0  0  0  0  0  0  0  0  0
  153.5022  144.2488  160.0179 H   0  0  0  0  0  0  0  0  0  0  0  0
  1 18  1  0  0  0  0
  1  2  1  0  0  0  0
  1 19  1  0  0  0  0
  1 20  1  0  0  0  0
  2  3  1  0  0  0  0
  2 21  1  0  0  0  0
  2 22  1  0  0  0  0
  3  4  1  0  0  0  0
  3 23  1  0  0  0  0
  3 24  1  0  0  0  0
  4  5  1  0  0  0  0
  4 25  1  0  0  0  0
  4 26  1  0  0  0  0
  5  6  1  0  0  0  0
  5 17  1  0  0  0  0
  5 27  1  0  0  0  0
  6 16  1  0  0  0  0
  6  7  2  0  0  0  0
  7  8  1  0  0  0  0
  8  9  1  0  0  0  0
  9 10  1  0  0  0  0
  9 16  2  0  0  0  0
 10 15  1  0  0  0  0
 10 11  1  0  0  0  0
 10 28  1  0  0  0  0
 11 12  1  0  0  0  0
 11 29  1  0  0  0  0
 11 30  1  0  0  0  0
 12 13  1  0  0  0  0
 12 31  1  0  0  0  0
 13 14  1  0  0  0  0
 13 32  1  0  0  0  0
 13 33  1  0  0  0  0
 14 15  1  0  0  0  0
 14 34  1  0  0  0  0
 14 35  1  0  0  0  0
 17 18  1  0  0  0  0
 17 36  1  0  0  0  0
 17 37  1  0  0  0  0
 18 38  1  0  0  0  0
 18 39  1  0  0  0  0
M  END
> <s_m_source_file>
AV-unprocessed.smi

> <i_m_source_file_index>
885

> <i_lp_mmshare_version>
43012

> <i_f3d_flags>
0

> <s_epik_input>
W0NIMl0xW0NIMl1bQ0gyXVtDSDJdW0NIMl1bQ0gyXVtDSF0xYzJub2MobjIpW0NAQEhdM1tDSDJdW05IXVtDSDJdW0NIMl1PMw==

> <s_epik_cmdline>
J2VwaWtfcHl0aG9uJywgJy1waCcsICc3LjAnLCAnLXRuJywgJzgnLCAnLW1hJywgJzIwMCcsICctbWV0YWxfYmluZGluZycsICctaW1hZScsICc8aW5maWxlLm1hZT4nLCAnLW9tYWUnLCAnPG91dGZpbGUubWFlPic=

> <r_lp_tautomer_probability>
1

> <r_epik_Ionization_Penalty>
0.861744

> <r_epik_Ionization_Penalty_Charging>
0

> <r_epik_Ionization_Penalty_Neutral>
0.861744

> <r_epik_State_Penalty>
0.898282

> <r_epik_Charging_Adjusted_Penalty>
0.898282

> <i_epik_Tot_Q>
0

> <i_epik_Tot_abs_Q>
0

> <r_epik_Metal_State_Penalty>
0.898282

> <b_epik_Metal_Only>
0

> <s_lp_Force_Field>
OPLS_2005

> <r_lp_Energy>
20.6019

> <b_lp_Chiralities_Consistent>
1

> <s_lp_Variant>
AV-unprocessed.smi:885-3

> <Gold.Version>
5.8.1

> <Gold.Id.Protein>
6NUR|6NUR_protein|mol2

> <Gold.PLP.Fitness>
40.8952

> <Gold.PLP.PLP>
-35.4982

> <Gold.PLP.part.hbond>
-3.0000

> <Gold.PLP.part.metal>
0.0000

> <Gold.PLP.part.buried>
0.8964

> <Gold.PLP.part.nonpolar>
-32.7791

> <Gold.PLP.part.repulsive>
0.1591

> <Gold.PLP.ligand.clash>
0.0000

> <Gold.PLP.ligand.torsion>
0.3551

> <Gold.PLP.Chemscore.Hbond>
2.0000

> <Gold.PLP.Chemscore.CHOScore>
0.0000

> <Gold.PLP.Chemscore.Metal>
0.0000

> <Gold.Chemscore.Hbonds>
donor molecule, donor type, donor heavy atom, donor atom, acceptor molecule, acceptor atom, score
      L1  H    12    31       P1  7948  0.92
      P1  H  7997  8009       L1     7  1.00

> <Gold.PLP.Chemscore.Internal.Correction>
0.1073

> <Gold.Rescore>
     Score         DG    S(hbond)    S(metal)    S(lipo)     H(rot)  DE(clash)    DE(int)     intcor
     18.93     -21.23       1.95        0.00     105.32       1.21       2.05       0.24       ----

> <Gold.Chemscore.Fitness>
18.9331

> <Gold.Chemscore.DG>
-21.2300

> <Gold.Chemscore.ZeroCoef>
-5.4800

> <Gold.Chemscore.Hbond>
1.9529

> <Gold.Chemscore.Metal>
0.0000

> <Gold.Chemscore.Lipo>
105.3163

> <Gold.Chemscore.Internal_Hbond>
0.0000

> <Gold.Chemscore.DEClash>
2.0527

> <Gold.Chemscore.DEInternal>
0.2442

> <Gold.Chemscore.Rot>
1.2088

> <Gold.Chemscore.Internal.Correction>
   9.000000E+99

> <Gold.Chemscore.Hbonds>
donor molecule, donor type, donor heavy atom, donor atom, acceptor molecule, acceptor atom, score
      L1  H    12    31       P1  7948  0.82
      P1  H  7997  8009       L1     7  0.93

> <Gold.Chemscore.Hbond.Weighted>
-6.5226

> <Gold.Chemscore.Metal.Weighted>
-0.0000

> <Gold.Chemscore.Lipo.Weighted>
-12.3220

> <Gold.Chemscore.Internal_Hbond.Weighted>
0.0000

> <Gold.Chemscore.DEClash.Weighted>
2.0527

> <Gold.Chemscore.DEInternal.Weighted>
0.2442

> <Gold.Chemscore.Rot.Weighted>
3.0946

> <Gold.Chemscore.Internal.Correction.Weighted>
   9.000000E+99

> <Gold.Protein.RotatedTorsions>
[ 6907 6896 6895 6894 ] final  -35.96 input  -60.11 | X-H torsion
[ 7974 7965 7964 7962 ] final   73.32 input  175.53 | X-H torsion
[ 8008 7997 7996 7995 ] final  174.28 input   59.86 | X-H torsion
[ 10167 10162 10161 10158 ] final  116.90 input  -65.29 | X-H torsion
[ 10718 10713 10712 10709 ] final  -82.39 input   66.30 | X-H torsion
[ 10763 10752 10751 10750 ] final  -40.98 input  -60.55 | X-H torsion
[ 11005 11000 10999 10996 ] final  103.90 input  -57.11 | X-H torsion

> <Gold.Protein.ActiveResidues>
 VAL166  LYS551  ARG553  GLY616  TRP617  ASP618  TYR619  PRO620  LYS621  CYS622 
 ASP623  PHE694  ASN695  SER759  ASP760  ASP761  ALA762  ILE779  LEU786  VAL792 
 PHE793  MET794  SER795  GLU796  ALA797  LYS798  CYS799  TRP800  GLU811  SER814 

> <Gold.Protein.RotatedAtoms>
  151.0331  134.9554  159.8121 H   0  0  0  0  0  0  0  0  0  0  0  0  # atno 6907 bound_to 6896
  152.5349  134.2754  159.8997 H   0  0  0  0  0  0  0  0  0  0  0  0  # atno 6908 bound_to 6896
  151.2764  133.4188  159.2658 H   0  0  0  0  0  0  0  0  0  0  0  0  # atno 6909 bound_to 6896
  145.7423  139.2726  143.1479 H   0  0  0  0  0  0  0  0  0  0  0  0  # atno 7974 bound_to 7965
  156.0990  140.1438  156.9492 H   0  0  0  0  0  0  0  0  0  0  0  0  # atno 8008 bound_to 7997
  154.4690  140.0916  156.7142 H   0  0  0  0  0  0  0  0  0  0  0  0  # atno 8009 bound_to 7997
  155.4791  140.3444  155.4339 H   0  0  0  0  0  0  0  0  0  0  0  0  # atno 8010 bound_to 7997
  139.6215  144.7102  151.2624 H   0  0  0  0  0  0  0  0  0  0  0  0  # atno 10167 bound_to 10162
  156.0034  130.4633  150.4098 H   0  0  0  0  0  0  0  0  0  0  0  0  # atno 10718 bound_to 10713
  153.9549  135.6746  153.4744 H   0  0  0  0  0  0  0  0  0  0  0  0  # atno 10763 bound_to 10752
  153.0866  135.4896  154.8605 H   0  0  0  0  0  0  0  0  0  0  0  0  # atno 10764 bound_to 10752
  154.7305  135.3137  154.8859 H   0  0  0  0  0  0  0  0  0  0  0  0  # atno 10765 bound_to 10752
  139.8787  134.9280  156.5280 H   0  0  0  0  0  0  0  0  0  0  0  0  # atno 11005 bound_to 11000
  146.0436  140.8141  142.9816 LP  0  0  0  0  0  0  0  0  0  0  0  0  # atno 17320 bound_to 7965
  144.6868  140.2946  143.7272 LP  0  0  0  0  0  0  0  0  0  0  0  0  # atno 17321 bound_to 7965
  140.7385  143.6646  150.8134 LP  0  0  0  0  0  0  0  0  0  0  0  0  # atno 17342 bound_to 10162
  140.0258  143.5495  152.2781 LP  0  0  0  0  0  0  0  0  0  0  0  0  # atno 17343 bound_to 10162
  157.2161  131.0472  151.2572 LP  0  0  0  0  0  0  0  0  0  0  0  0  # atno 17370 bound_to 10713
  157.3843  130.7248  149.6652 LP  0  0  0  0  0  0  0  0  0  0  0  0  # atno 17371 bound_to 10713
  140.8402  133.8211  155.9067 LP  0  0  0  0  0  0  0  0  0  0  0  0  # atno 17394 bound_to 11000
  140.9245  134.2100  157.4905 LP  0  0  0  0  0  0  0  0  0  0  0  0  # atno 17395 bound_to 11000

$$$$
