AV-unprocessed.smi:1795|AV-procd|sdf|7237|dock7
  -GOLD-   22720 8483D 1   1.00000     0.00000
 Structure written by MMmdl.
 47 48  0  0  0  0  0  0  0  0  1 V2000
  154.1763  141.8161  159.6387 C   0  0  0  0  0  0  0  0  0  0  0  0
  152.7481  141.9527  160.1946 C   0  0  2  0  0  0  0  0  0  0  0  0
  151.6769  141.3099  159.2911 C   0  0  0  0  0  0  0  0  0  0  0  0
  151.3991  142.0750  158.0699 N   0  0  0  0  0  0  0  0  0  0  0  0
  150.3502  141.4467  157.2320 C   0  0  2  0  0  0  0  0  0  0  0  0
  150.3317  141.9942  155.7814 C   0  0  0  0  0  0  0  0  0  0  0  0
  148.9211  141.5783  157.8372 C   0  0  0  0  0  0  0  0  0  0  0  0
  147.8542  141.4551  156.8479 N   0  0  0  0  0  0  0  0  0  0  0  0
  146.6454  142.0289  156.9408 C   0  0  0  0  0  0  0  0  0  0  0  0
  146.3156  142.7599  157.8756 O   0  0  0  0  0  0  0  0  0  0  0  0
  145.6728  141.7401  155.7891 C   0  0  0  0  0  0  0  0  0  0  0  0
  145.0357  142.9541  155.2527 N   0  0  0  0  0  0  0  0  0  0  0  0
  145.4241  143.3684  153.9628 C   0  0  0  0  0  0  0  0  0  0  0  0
  144.9035  144.4606  153.3811 C   0  0  0  0  0  0  0  0  0  0  0  0
  143.9181  145.2198  154.1137 C   0  0  0  0  0  0  0  0  0  0  0  0
  143.5423  144.8349  155.3497 C   0  0  0  0  0  0  0  0  0  0  0  0
  144.1100  143.6427  155.9902 C   0  0  0  0  0  0  0  0  0  0  0  0
  143.7740  143.2843  157.1196 O   0  0  0  0  0  0  0  0  0  0  0  0
  151.0634  143.4462  158.4660 C   0  0  0  0  0  0  0  0  0  0  0  0
  152.1580  144.1080  159.3226 C   0  0  1  0  0  0  0  0  0  0  0  0
  151.7493  145.5067  159.7972 C   0  0  0  0  0  0  0  0  0  0  0  0
  152.4129  143.3099  160.4734 O   0  0  0  0  0  0  0  0  0  0  0  0
  154.4581  140.7666  159.5492 H   0  0  0  0  0  0  0  0  0  0  0  0
  154.8980  142.2965  160.2992 H   0  0  0  0  0  0  0  0  0  0  0  0
  154.2769  142.2637  158.6501 H   0  0  0  0  0  0  0  0  0  0  0  0
  152.7313  141.4329  161.1529 H   0  0  0  0  0  0  0  0  0  0  0  0
  152.0196  140.3050  159.0512 H   0  0  0  0  0  0  0  0  0  0  0  0
  150.7547  141.1964  159.8629 H   0  0  0  0  0  0  0  0  0  0  0  0
  150.5741  140.3809  157.1636 H   0  0  0  0  0  0  0  0  0  0  0  0
  149.5283  141.5656  155.1833 H   0  0  0  0  0  0  0  0  0  0  0  0
  151.2433  141.7534  155.2365 H   0  0  0  0  0  0  0  0  0  0  0  0
  150.2066  143.0774  155.7703 H   0  0  0  0  0  0  0  0  0  0  0  0
  148.7263  140.8237  158.5979 H   0  0  0  0  0  0  0  0  0  0  0  0
  148.8154  142.5459  158.3290 H   0  0  0  0  0  0  0  0  0  0  0  0
  148.0445  140.8748  156.0437 H   0  0  0  0  0  0  0  0  0  0  0  0
  146.2217  141.2143  155.0067 H   0  0  0  0  0  0  0  0  0  0  0  0
  144.9072  141.0367  156.1226 H   0  0  0  0  0  0  0  0  0  0  0  0
  146.1704  142.7504  153.4851 H   0  0  0  0  0  0  0  0  0  0  0  0
  145.2160  144.7652  152.3932 H   0  0  0  0  0  0  0  0  0  0  0  0
  143.4813  146.1024  153.6698 H   0  0  0  0  0  0  0  0  0  0  0  0
  142.8051  145.4167  155.8833 H   0  0  0  0  0  0  0  0  0  0  0  0
  150.9296  144.0789  157.5916 H   0  0  0  0  0  0  0  0  0  0  0  0
  150.1170  143.4511  159.0094 H   0  0  0  0  0  0  0  0  0  0  0  0
  153.0719  144.2018  158.7355 H   0  0  0  0  0  0  0  0  0  0  0  0
  151.5541  146.1673  158.9518 H   0  0  0  0  0  0  0  0  0  0  0  0
  152.5384  145.9601  160.3973 H   0  0  0  0  0  0  0  0  0  0  0  0
  150.8468  145.4683  160.4079 H   0  0  0  0  0  0  0  0  0  0  0  0
  1  2  1  0  0  0  0
  1 23  1  0  0  0  0
  1 24  1  0  0  0  0
  1 25  1  0  0  0  0
  2 22  1  0  0  0  0
  2  3  1  0  0  0  0
  2 26  1  0  0  0  0
  3  4  1  0  0  0  0
  3 27  1  0  0  0  0
  3 28  1  0  0  0  0
  4  5  1  0  0  0  0
  4 19  1  0  0  0  0
  5  6  1  0  0  0  0
  5  7  1  0  0  0  0
  5 29  1  0  0  0  0
  6 30  1  0  0  0  0
  6 31  1  0  0  0  0
  6 32  1  0  0  0  0
  7  8  1  0  0  0  0
  7 33  1  0  0  0  0
  7 34  1  0  0  0  0
  8  9  1  0  0  0  0
  8 35  1  0  0  0  0
  9 10  2  0  0  0  0
  9 11  1  0  0  0  0
 11 12  1  0  0  0  0
 11 36  1  0  0  0  0
 11 37  1  0  0  0  0
 12 17  1  0  0  0  0
 12 13  1  0  0  0  0
 13 14  2  0  0  0  0
 13 38  1  0  0  0  0
 14 15  1  0  0  0  0
 14 39  1  0  0  0  0
 15 16  2  0  0  0  0
 15 40  1  0  0  0  0
 16 17  1  0  0  0  0
 16 41  1  0  0  0  0
 17 18  2  0  0  0  0
 19 20  1  0  0  0  0
 19 42  1  0  0  0  0
 19 43  1  0  0  0  0
 20 21  1  0  0  0  0
 20 22  1  0  0  0  0
 20 44  1  0  0  0  0
 21 45  1  0  0  0  0
 21 46  1  0  0  0  0
 21 47  1  0  0  0  0
M  END
> <s_m_source_file>
AV-unprocessed.smi

> <i_m_source_file_index>
1795

> <i_lp_mmshare_version>
43012

> <i_f3d_flags>
0

> <s_epik_input>
W0NIM11bQ0BASF0xW0NIMl1OKFtDSDJdW0NASF0oTzEpW0NIM10pW0NASF0oW0NIM10pW0NIMl1bTkhdQyg9TylbQ0gyXW4yW2NIXVtjSF1bY0hdW2NIXWMyPU8=

> <s_epik_cmdline>
J2VwaWtfcHl0aG9uJywgJy1waCcsICc3LjAnLCAnLXRuJywgJzgnLCAnLW1hJywgJzIwMCcsICctbWV0YWxfYmluZGluZycsICctaW1hZScsICc8aW5maWxlLm1hZT4nLCAnLW9tYWUnLCAnPG91dGZpbGUubWFlPic=

> <r_lp_tautomer_probability>
1

> <r_epik_Ionization_Penalty>
0.237383

> <r_epik_Ionization_Penalty_Charging>
3.58805e-07

> <r_epik_Ionization_Penalty_Neutral>
0.237382

> <r_epik_State_Penalty>
0.228245

> <r_epik_Charging_Adjusted_Penalty>
0.228245

> <i_epik_Tot_Q>
0

> <i_epik_Tot_abs_Q>
0

> <r_epik_Metal_State_Penalty>
0.228221

> <b_epik_Metal_Only>
0

> <s_lp_Force_Field>
OPLS_2005

> <r_lp_Energy>
40.3044

> <b_lp_Chiralities_Consistent>
1

> <s_lp_Variant>
AV-unprocessed.smi:1795-1

> <Gold.Version>
5.8.1

> <Gold.Id.Protein>
6NUR|6NUR_protein|mol2

> <Gold.PLP.Fitness>
43.8081

> <Gold.PLP.PLP>
-45.5197

> <Gold.PLP.part.hbond>
0.0000

> <Gold.PLP.part.metal>
0.0000

> <Gold.PLP.part.buried>
-6.7427

> <Gold.PLP.part.nonpolar>
-40.1876

> <Gold.PLP.part.repulsive>
0.2928

> <Gold.PLP.ligand.clash>
0.0000

> <Gold.PLP.ligand.torsion>
0.8806

> <Gold.PLP.Chemscore.Hbond>
0.0000

> <Gold.PLP.Chemscore.CHOScore>
0.0000

> <Gold.PLP.Chemscore.Metal>
0.0000

> <Gold.PLP.Chemscore.Internal.Correction>
0.0495

> <Gold.Rescore>
     Score         DG    S(hbond)    S(metal)    S(lipo)     H(rot)  DE(clash)    DE(int)     intcor
     11.87     -14.21       0.00        0.00     114.55       1.83       0.05       2.29       ----

> <Gold.Chemscore.Fitness>
11.8702

> <Gold.Chemscore.DG>
-14.2099

> <Gold.Chemscore.ZeroCoef>
-5.4800

> <Gold.Chemscore.Hbond>
0.0000

> <Gold.Chemscore.Metal>
0.0000

> <Gold.Chemscore.Lipo>
114.5497

> <Gold.Chemscore.Internal_Hbond>
0.0000

> <Gold.Chemscore.DEClash>
0.0456

> <Gold.Chemscore.DEInternal>
2.2941

> <Gold.Chemscore.Rot>
1.8251

> <Gold.Chemscore.Internal.Correction>
   9.000000E+99

> <Gold.Chemscore.Hbond.Weighted>
-0.0000

> <Gold.Chemscore.Metal.Weighted>
-0.0000

> <Gold.Chemscore.Lipo.Weighted>
-13.4023

> <Gold.Chemscore.Internal_Hbond.Weighted>
0.0000

> <Gold.Chemscore.DEClash.Weighted>
0.0456

> <Gold.Chemscore.DEInternal.Weighted>
2.2941

> <Gold.Chemscore.Rot.Weighted>
4.6724

> <Gold.Chemscore.Internal.Correction.Weighted>
   9.000000E+99

> <Gold.Protein.RotatedTorsions>
[ 6907 6896 6895 6894 ] final -177.16 input  -60.11 | X-H torsion
[ 7974 7965 7964 7962 ] final  -56.17 input  175.53 | X-H torsion
[ 8008 7997 7996 7995 ] final    3.11 input   59.86 | X-H torsion
[ 10167 10162 10161 10158 ] final  171.13 input  -65.29 | X-H torsion
[ 10718 10713 10712 10709 ] final  117.16 input   66.30 | X-H torsion
[ 10763 10752 10751 10750 ] final  -60.94 input  -60.55 | X-H torsion
[ 11005 11000 10999 10996 ] final  161.06 input  -57.11 | X-H torsion

> <Gold.Protein.ActiveResidues>
 VAL166  LYS551  ARG553  GLY616  TRP617  ASP618  TYR619  PRO620  LYS621  CYS622 
 ASP623  PHE694  ASN695  SER759  ASP760  ASP761  ALA762  ILE779  LEU786  VAL792 
 PHE793  MET794  SER795  GLU796  ALA797  LYS798  CYS799  TRP800  GLU811  SER814 

> <Gold.Protein.RotatedAtoms>
  151.6165  133.3342  159.3078 H   0  0  0  0  0  0  0  0  0  0  0  0  # atno 6907 bound_to 6896
  150.8129  134.7297  159.6715 H   0  0  0  0  0  0  0  0  0  0  0  0  # atno 6908 bound_to 6896
  152.4225  134.5934  160.0032 H   0  0  0  0  0  0  0  0  0  0  0  0  # atno 6909 bound_to 6896
  145.8657  140.8253  142.9914 H   0  0  0  0  0  0  0  0  0  0  0  0  # atno 7974 bound_to 7965
  154.6998  140.2670  155.6731 H   0  0  0  0  0  0  0  0  0  0  0  0  # atno 8008 bound_to 7997
  156.2761  140.2774  156.1528 H   0  0  0  0  0  0  0  0  0  0  0  0  # atno 8009 bound_to 7997
  155.0781  140.0372  157.2620 H   0  0  0  0  0  0  0  0  0  0  0  0  # atno 8010 bound_to 7997
  139.5038  144.3520  151.9913 H   0  0  0  0  0  0  0  0  0  0  0  0  # atno 10167 bound_to 10162
  157.6114  131.1034  150.7576 H   0  0  0  0  0  0  0  0  0  0  0  0  # atno 10718 bound_to 10713
  154.2769  135.6279  153.5332 H   0  0  0  0  0  0  0  0  0  0  0  0  # atno 10763 bound_to 10752
  152.9871  135.5623  154.5538 H   0  0  0  0  0  0  0  0  0  0  0  0  # atno 10764 bound_to 10752
  154.5121  135.2877  155.1310 H   0  0  0  0  0  0  0  0  0  0  0  0  # atno 10765 bound_to 10752
  140.2121  134.8260  157.3131 H   0  0  0  0  0  0  0  0  0  0  0  0  # atno 11005 bound_to 11000
  144.6726  140.1163  143.7452 LP  0  0  0  0  0  0  0  0  0  0  0  0  # atno 17320 bound_to 7965
  145.9196  139.2537  143.1389 LP  0  0  0  0  0  0  0  0  0  0  0  0  # atno 17321 bound_to 7965
  140.2956  144.3704  150.6075 LP  0  0  0  0  0  0  0  0  0  0  0  0  # atno 17342 bound_to 10162
  140.5913  143.2168  151.7248 LP  0  0  0  0  0  0  0  0  0  0  0  0  # atno 17343 bound_to 10162
  156.7952  130.4903  149.5378 LP  0  0  0  0  0  0  0  0  0  0  0  0  # atno 17370 bound_to 10713
  156.1219  130.6116  151.0206 LP  0  0  0  0  0  0  0  0  0  0  0  0  # atno 17371 bound_to 10713
  140.1940  134.4336  155.7699 LP  0  0  0  0  0  0  0  0  0  0  0  0  # atno 17394 bound_to 11000
  141.2226  133.7040  156.8074 LP  0  0  0  0  0  0  0  0  0  0  0  0  # atno 17395 bound_to 11000

$$$$
