AV-unprocessed.smi:1319|AV-procd|sdf|5458|dock1
  -GOLD-   22720 5 23D 1   1.00000     0.00000
 Structure written by MMmdl.
 28 29  0  0  0  0  0  0  0  0  1 V2000
  153.8550  137.4254  156.5512 N   0  0  0  0  0  0  0  0  0  0  0  0
  152.9091  138.2378  155.9744 C   0  0  0  0  0  0  0  0  0  0  0  0
  152.3495  137.7857  154.8450 N   0  0  0  0  0  0  0  0  0  0  0  0
  151.4391  138.6320  154.3471 C   0  0  0  0  0  0  0  0  0  0  0  0
  150.8168  138.2413  153.1862 N   0  0  0  0  0  0  0  0  0  0  0  0
  151.0642  139.8137  154.8496 N   0  0  0  0  0  0  0  0  0  0  0  0
  151.7208  140.1111  155.9765 C   0  0  0  0  0  0  0  0  0  0  0  0
  151.2980  141.6578  156.7350 S   0  0  0  0  0  0  0  0  0  0  0  0
  152.3374  141.5497  158.2164 C   0  0  0  0  0  0  0  0  0  0  0  0
  152.3703  142.8771  158.9842 C   0  0  2  0  0  0  0  0  0  0  0  0
  152.9495  142.7670  160.3927 C   0  0  0  0  0  0  0  0  0  0  0  0
  152.3242  143.9448  161.1244 C   0  0  0  0  0  0  0  0  0  0  0  0
  151.1557  144.3665  160.2274 C   0  0  0  0  0  0  0  0  0  0  0  0
  151.0580  143.3536  159.2357 O   0  0  0  0  0  0  0  0  0  0  0  0
  152.6530  139.3881  156.6072 N   0  0  0  0  0  0  0  0  0  0  0  0
  154.3162  137.7043  157.4048 H   0  0  0  0  0  0  0  0  0  0  0  0
  154.0826  136.5330  156.1375 H   0  0  0  0  0  0  0  0  0  0  0  0
  151.0512  137.3600  152.7527 H   0  0  0  0  0  0  0  0  0  0  0  0
  150.0963  138.8161  152.7742 H   0  0  0  0  0  0  0  0  0  0  0  0
  151.9645  140.7480  158.8549 H   0  0  0  0  0  0  0  0  0  0  0  0
  153.3462  141.2724  157.9088 H   0  0  0  0  0  0  0  0  0  0  0  0
  152.9201  143.6304  158.4168 H   0  0  0  0  0  0  0  0  0  0  0  0
  152.6284  141.8356  160.8609 H   0  0  0  0  0  0  0  0  0  0  0  0
  154.0397  142.7902  160.4025 H   0  0  0  0  0  0  0  0  0  0  0  0
  151.9871  143.6527  162.1195 H   0  0  0  0  0  0  0  0  0  0  0  0
  153.0340  144.7651  161.2377 H   0  0  0  0  0  0  0  0  0  0  0  0
  150.2197  144.4655  160.7776 H   0  0  0  0  0  0  0  0  0  0  0  0
  151.3690  145.3215  159.7449 H   0  0  0  0  0  0  0  0  0  0  0  0
  1  2  1  0  0  0  0
  1 16  1  0  0  0  0
  1 17  1  0  0  0  0
  2 15  1  0  0  0  0
  2  3  2  0  0  0  0
  3  4  1  0  0  0  0
  4  5  1  0  0  0  0
  4  6  2  0  0  0  0
  5 18  1  0  0  0  0
  5 19  1  0  0  0  0
  6  7  1  0  0  0  0
  7  8  1  0  0  0  0
  7 15  2  0  0  0  0
  8  9  1  0  0  0  0
  9 10  1  0  0  0  0
  9 20  1  0  0  0  0
  9 21  1  0  0  0  0
 10 14  1  0  0  0  0
 10 11  1  0  0  0  0
 10 22  1  0  0  0  0
 11 12  1  0  0  0  0
 11 23  1  0  0  0  0
 11 24  1  0  0  0  0
 12 13  1  0  0  0  0
 12 25  1  0  0  0  0
 12 26  1  0  0  0  0
 13 14  1  0  0  0  0
 13 27  1  0  0  0  0
 13 28  1  0  0  0  0
M  END
> <s_m_source_file>
AV-unprocessed.smi

> <i_m_source_file_index>
1319

> <i_lp_mmshare_version>
43012

> <i_f3d_flags>
0

> <s_epik_input>
W05IMl1jMW5jKFtOSDJdKW5jKG4xKVNbQ0gyXVtDQEBIXTJbQ0gyXVtDSDJdW0NIMl1PMg==

> <s_epik_cmdline>
J2VwaWtfcHl0aG9uJywgJy1waCcsICc3LjAnLCAnLXRuJywgJzgnLCAnLW1hJywgJzIwMCcsICctbWV0YWxfYmluZGluZycsICctaW1hZScsICc8aW5maWxlLm1hZT4nLCAnLW9tYWUnLCAnPG91dGZpbGUubWFlPic=

> <r_lp_tautomer_probability>
1

> <r_epik_Ionization_Penalty>
0.000877611

> <r_epik_Ionization_Penalty_Charging>
0

> <r_epik_Ionization_Penalty_Neutral>
0.000877611

> <r_epik_State_Penalty>
-0

> <r_epik_Charging_Adjusted_Penalty>
0

> <i_epik_Tot_Q>
0

> <i_epik_Tot_abs_Q>
0

> <r_epik_Metal_State_Penalty>
-0

> <b_epik_Metal_Only>
0

> <s_lp_Force_Field>
OPLS_2005

> <r_lp_Energy>
8.74089

> <b_lp_Chiralities_Consistent>
1

> <s_lp_Variant>
AV-unprocessed.smi:1319-1

> <Gold.Version>
5.8.1

> <Gold.Id.Protein>
6NUR|6NUR_protein|mol2

> <Gold.PLP.Fitness>
41.3787

> <Gold.PLP.PLP>
-28.5533

> <Gold.PLP.part.hbond>
-5.9782

> <Gold.PLP.part.metal>
0.0000

> <Gold.PLP.part.buried>
-1.0971

> <Gold.PLP.part.nonpolar>
-21.0131

> <Gold.PLP.part.repulsive>
0.4879

> <Gold.PLP.ligand.clash>
0.0000

> <Gold.PLP.ligand.torsion>
0.0968

> <Gold.PLP.Chemscore.Hbond>
4.3331

> <Gold.PLP.Chemscore.CHOScore>
0.0000

> <Gold.PLP.Chemscore.Metal>
0.0000

> <Gold.Chemscore.Hbonds>
donor molecule, donor type, donor heavy atom, donor atom, acceptor molecule, acceptor atom, score
      L1  H     5    18       P1  7949  1.00
      L1  H     5    19       P1  7957  0.80
      P1  H  7989  7998       L1     6  0.90
      P1  H  7997  8009       L1    15  0.90
      P1  H 10752 10765       L1     3  0.27

> <Gold.PLP.Chemscore.Internal.Correction>
0.0196

> <Gold.Rescore>
     Score         DG    S(hbond)    S(metal)    S(lipo)     H(rot)  DE(clash)    DE(int)     intcor
     13.06     -14.50       2.11        0.00      59.72       1.96       1.40       0.04       ----

> <Gold.Chemscore.Fitness>
13.0623

> <Gold.Chemscore.DG>
-14.4976

> <Gold.Chemscore.ZeroCoef>
-5.4800

> <Gold.Chemscore.Hbond>
2.1118

> <Gold.Chemscore.Metal>
0.0000

> <Gold.Chemscore.Lipo>
59.7153

> <Gold.Chemscore.Internal_Hbond>
0.0000

> <Gold.Chemscore.DEClash>
1.3982

> <Gold.Chemscore.DEInternal>
0.0371

> <Gold.Chemscore.Rot>
1.9619

> <Gold.Chemscore.Internal.Correction>
   9.000000E+99

> <Gold.Chemscore.Hbonds>
donor molecule, donor type, donor heavy atom, donor atom, acceptor molecule, acceptor atom, score
      L1  H     5    18       P1  7949  0.35
      L1  H     5    19       P1  7957  0.42
      P1  H  7989  7998       L1     6  0.13
      P1  H  7997  8009       L1    15  0.17
      P1  H 10752 10765       L1     3  0.19

> <Gold.Chemscore.Hbond.Weighted>
-7.0533

> <Gold.Chemscore.Metal.Weighted>
-0.0000

> <Gold.Chemscore.Lipo.Weighted>
-6.9867

> <Gold.Chemscore.Internal_Hbond.Weighted>
0.0000

> <Gold.Chemscore.DEClash.Weighted>
1.3982

> <Gold.Chemscore.DEInternal.Weighted>
0.0371

> <Gold.Chemscore.Rot.Weighted>
5.0224

> <Gold.Chemscore.Internal.Correction.Weighted>
   9.000000E+99

> <Gold.Protein.RotatedTorsions>
[ 6907 6896 6895 6894 ] final  -10.03 input  -60.11 | X-H torsion
[ 7974 7965 7964 7962 ] final    8.37 input  175.53 | X-H torsion
[ 8008 7997 7996 7995 ] final -176.85 input   59.86 | X-H torsion
[ 10167 10162 10161 10158 ] final    2.85 input  -65.29 | X-H torsion
[ 10718 10713 10712 10709 ] final  100.58 input   66.30 | X-H torsion
[ 10763 10752 10751 10750 ] final  176.54 input  -60.55 | X-H torsion
[ 11005 11000 10999 10996 ] final    8.54 input  -57.11 | X-H torsion

> <Gold.Protein.ActiveResidues>
 VAL166  LYS551  ARG553  GLY616  TRP617  ASP618  TYR619  PRO620  LYS621  CYS622 
 ASP623  PHE694  ASN695  SER759  ASP760  ASP761  ALA762  ILE779  LEU786  VAL792 
 PHE793  MET794  SER795  GLU796  ALA797  LYS798  CYS799  TRP800  GLU811  SER814 

> <Gold.Protein.RotatedAtoms>
  151.4083  135.0981  159.9577 H   0  0  0  0  0  0  0  0  0  0  0  0  # atno 6907 bound_to 6896
  152.5028  133.8822  159.7362 H   0  0  0  0  0  0  0  0  0  0  0  0  # atno 6908 bound_to 6896
  150.9311  133.6709  159.2839 H   0  0  0  0  0  0  0  0  0  0  0  0  # atno 6909 bound_to 6896
  146.2417  139.9944  142.8422 H   0  0  0  0  0  0  0  0  0  0  0  0  # atno 7974 bound_to 7965
  155.9999  140.1218  157.0558 H   0  0  0  0  0  0  0  0  0  0  0  0  # atno 8008 bound_to 7997
  154.4239  140.1109  156.5751 H   0  0  0  0  0  0  0  0  0  0  0  0  # atno 8009 bound_to 7997
  155.6227  140.3472  155.4659 H   0  0  0  0  0  0  0  0  0  0  0  0  # atno 8010 bound_to 7997
  140.6615  143.7291  150.7747 H   0  0  0  0  0  0  0  0  0  0  0  0  # atno 10167 bound_to 10162
  157.6850  131.0702  150.5122 H   0  0  0  0  0  0  0  0  0  0  0  0  # atno 10718 bound_to 10713
  154.4825  135.2775  155.1559 H   0  0  0  0  0  0  0  0  0  0  0  0  # atno 10763 bound_to 10752
  154.3263  135.6199  153.5534 H   0  0  0  0  0  0  0  0  0  0  0  0  # atno 10764 bound_to 10752
  152.9877  135.5755  154.5229 H   0  0  0  0  0  0  0  0  0  0  0  0  # atno 10765 bound_to 10752
  140.5358  134.0422  155.7888 H   0  0  0  0  0  0  0  0  0  0  0  0  # atno 11005 bound_to 11000
  145.1473  140.9604  143.4453 LP  0  0  0  0  0  0  0  0  0  0  0  0  # atno 17320 bound_to 7965
  145.0238  139.3400  143.6059 LP  0  0  0  0  0  0  0  0  0  0  0  0  # atno 17321 bound_to 7965
  140.0961  143.4832  152.2452 LP  0  0  0  0  0  0  0  0  0  0  0  0  # atno 17342 bound_to 10162
  139.5850  144.7527  151.3542 LP  0  0  0  0  0  0  0  0  0  0  0  0  # atno 17343 bound_to 10162
  156.5439  130.4215  149.6140 LP  0  0  0  0  0  0  0  0  0  0  0  0  # atno 17370 bound_to 10713
  156.2961  130.7151  151.2012 LP  0  0  0  0  0  0  0  0  0  0  0  0  # atno 17371 bound_to 10713
  141.1255  133.9390  157.2643 LP  0  0  0  0  0  0  0  0  0  0  0  0  # atno 17394 bound_to 11000
  139.9530  135.0171  156.9048 LP  0  0  0  0  0  0  0  0  0  0  0  0  # atno 17395 bound_to 11000

$$$$
