AV-unprocessed.smi:35|AV-procd|sdf|277|dock3
  -GOLD-   2262016 43D 1   1.00000     0.00000
 Structure written by MMmdl.
 28 29  0  0  0  0  0  0  0  0  2 V2000
  150.7605  133.4625  155.3182 O   0  0  0  0  0  0  0  0  0  0  0  0
  150.5295  134.6638  155.4435 C   0  0  0  0  0  0  0  0  0  0  0  0
  151.5156  135.6003  155.5547 N   0  5  0  0  0  0  0  0  0  0  0  0
  151.2534  136.9335  155.6902 C   0  0  0  0  0  0  0  0  0  0  0  0
  152.1350  137.7881  155.7804 O   0  0  0  0  0  0  0  0  0  0  0  0
  149.9006  137.3703  155.7198 N   0  0  0  0  0  0  0  0  0  0  0  0
  149.6155  138.8523  155.8696 C   0  0  2  0  0  0  0  0  0  0  0  0
  148.2305  139.0760  155.8507 O   0  0  0  0  0  0  0  0  0  0  0  0
  147.8567  139.9839  154.8135 C   0  0  2  0  0  0  0  0  0  0  0  0
  147.2422  139.1860  153.6434 C   0  0  0  0  0  0  0  0  0  0  0  0
  145.8462  139.0454  153.8051 O   0  0  0  0  0  0  0  0  0  0  0  0
  149.1572  140.7432  154.5176 C   0  0  2  0  0  0  0  0  0  0  0  0
  149.2232  141.3758  153.2529 O   0  0  0  0  0  0  0  0  0  0  0  0
  150.2482  139.7097  154.7522 C   0  0  2  0  0  0  0  0  0  0  0  0
  150.5677  138.9746  153.5809 O   0  0  0  0  0  0  0  0  0  0  0  0
  148.8787  136.4420  155.6121 C   0  0  0  0  0  0  0  0  0  0  0  0
  149.1451  135.1273  155.4762 C   0  0  0  0  0  0  0  0  0  0  0  0
  147.5849  133.9145  155.3287 Br  0  0  0  0  0  0  0  0  0  0  0  0
  149.9737  139.1197  156.8654 H   0  0  0  0  0  0  0  0  0  0  0  0
  147.1017  140.6625  155.2125 H   0  0  0  0  0  0  0  0  0  0  0  0
  147.4615  139.6390  152.6775 H   0  0  0  0  0  0  0  0  0  0  0  0
  147.6621  138.1804  153.6250 H   0  0  0  0  0  0  0  0  0  0  0  0
  145.4161  139.4723  153.0800 H   0  0  0  0  0  0  0  0  0  0  0  0
  149.2670  141.5203  155.2753 H   0  0  0  0  0  0  0  0  0  0  0  0
  149.3212  140.7092  152.5907 H   0  0  0  0  0  0  0  0  0  0  0  0
  151.1647  140.1705  155.1224 H   0  0  0  0  0  0  0  0  0  0  0  0
  150.2225  139.4425  152.8353 H   0  0  0  0  0  0  0  0  0  0  0  0
  147.8484  136.7576  155.6353 H   0  0  0  0  0  0  0  0  0  0  0  0
  1  2  2  0  0  0  0
  2 17  1  0  0  0  0
  2  3  1  0  0  0  0
  3  4  1  0  0  0  0
  4  5  2  0  0  0  0
  4  6  1  0  0  0  0
  6  7  1  0  0  0  0
  6 16  1  0  0  0  0
  7 14  1  0  0  0  0
  7  8  1  0  0  0  0
  7 19  1  0  0  0  0
  8  9  1  0  0  0  0
  9 10  1  0  0  0  0
  9 12  1  0  0  0  0
  9 20  1  0  0  0  0
 10 11  1  0  0  0  0
 10 21  1  0  0  0  0
 10 22  1  0  0  0  0
 11 23  1  0  0  0  0
 12 13  1  0  0  0  0
 12 14  1  0  0  0  0
 12 24  1  0  0  0  0
 13 25  1  0  0  0  0
 14 15  1  0  0  0  0
 14 26  1  0  0  0  0
 15 27  1  0  0  0  0
 16 17  2  0  0  0  0
 16 28  1  0  0  0  0
 17 18  1  0  0  0  0
M  CHG  1   3  -1
M  END
> <s_m_source_file>
AV-unprocessed.smi

> <i_m_source_file_index>
35

> <i_lp_mmshare_version>
43012

> <i_f3d_flags>
0

> <s_epik_input>
Tz1jMVtuSF1jKD1PKW4oW2NIXWMxQnIpW0NAQEhdMk9bQ0BASF0oW0NIMl1bT0hdKVtDQEBIXShbT0hdKVtDQEhdMltPSF0=

> <s_epik_cmdline>
J2VwaWtfcHl0aG9uJywgJy1waCcsICc3LjAnLCAnLXRuJywgJzgnLCAnLW1hJywgJzIwMCcsICctbWV0YWxfYmluZGluZycsICctaW1hZScsICc8aW5maWxlLm1hZT4nLCAnLW9tYWUnLCAnPG91dGZpbGUubWFlPic=

> <r_epik_Ionization_Penalty>
1.06112

> <r_epik_Ionization_Penalty_Charging>
2.1796e-09

> <r_epik_Ionization_Penalty_Neutral>
1.06112

> <r_epik_State_Penalty>
1.11484

> <r_epik_Charging_Adjusted_Penalty>
1.11484

> <i_epik_Tot_Q>
-1

> <i_epik_Tot_abs_Q>
1

> <r_epik_Metal_State_Penalty>
0.0032876

> <b_epik_Metal_Only>
0

> <s_epik_Chemistry_Notes>
This compound contains an acetal/aminal-like group ( X-CH(R)-Y where X, Y are N, S, or O) that may be acid/base labile, releasing an aldehyde.

> <s_lp_Force_Field>
OPLS_2005

> <r_lp_Energy>
49.5496

> <b_lp_Chiralities_Consistent>
1

> <s_lp_Variant>
AV-unprocessed.smi:35-31

> <Gold.Version>
5.8.1

> <Gold.Id.Protein>
6NUR|6NUR_protein|mol2

> <Gold.PLP.Fitness>
35.8342

> <Gold.PLP.PLP>
-18.9796

> <Gold.PLP.part.hbond>
-5.9653

> <Gold.PLP.part.metal>
0.0000

> <Gold.PLP.part.buried>
-1.2816

> <Gold.PLP.part.nonpolar>
-11.1156

> <Gold.PLP.part.repulsive>
0.1174

> <Gold.PLP.ligand.clash>
0.0000

> <Gold.PLP.ligand.torsion>
0.3387

> <Gold.PLP.Chemscore.Hbond>
5.8426

> <Gold.PLP.Chemscore.CHOScore>
0.0000

> <Gold.PLP.Chemscore.Metal>
0.0000

> <Gold.Chemscore.Hbonds>
donor molecule, donor type, donor heavy atom, donor atom, acceptor molecule, acceptor atom, score
      L1  H    11    23       P1 10175  0.76
      L1  H    13    25       P1  7957  1.00
      L1  H    15    27       P1  7957  1.00
      P1  H  8011  8017       L1    13  0.51
      P1  H 10752 10764       L1     3  2.00

> <Gold.PLP.Chemscore.Internal.Correction>
0.0043

> <Gold.Rescore>
     Score         DG    S(hbond)    S(metal)    S(lipo)     H(rot)  DE(clash)    DE(int)     intcor
     10.57     -12.21       3.76        0.00      29.67       3.63       0.21       1.43       ----

> <Gold.Chemscore.Fitness>
10.5684

> <Gold.Chemscore.DG>
-12.2113

> <Gold.Chemscore.ZeroCoef>
-5.4800

> <Gold.Chemscore.Hbond>
3.7552

> <Gold.Chemscore.Metal>
0.0000

> <Gold.Chemscore.Lipo>
29.6738

> <Gold.Chemscore.Internal_Hbond>
0.0000

> <Gold.Chemscore.DEClash>
0.2121

> <Gold.Chemscore.DEInternal>
1.4308

> <Gold.Chemscore.Rot>
3.6261

> <Gold.Chemscore.Internal.Correction>
   9.000000E+99

> <Gold.Chemscore.Hbonds>
donor molecule, donor type, donor heavy atom, donor atom, acceptor molecule, acceptor atom, score
      L1  H    11    23       P1 10175  0.72
      L1  H    13    25       P1  7957  0.98
      L1  H    15    27       P1  7957  0.91
      P1  H  8011  8017       L1    13  0.03
      P1  H 10752 10764       L1     3  0.55

> <Gold.Chemscore.Hbond.Weighted>
-12.5423

> <Gold.Chemscore.Metal.Weighted>
-0.0000

> <Gold.Chemscore.Lipo.Weighted>
-3.4718

> <Gold.Chemscore.Internal_Hbond.Weighted>
0.0000

> <Gold.Chemscore.DEClash.Weighted>
0.2121

> <Gold.Chemscore.DEInternal.Weighted>
1.4308

> <Gold.Chemscore.Rot.Weighted>
9.2828

> <Gold.Chemscore.Internal.Correction.Weighted>
   9.000000E+99

> <Gold.Protein.RotatedTorsions>
[ 6907 6896 6895 6894 ] final -146.25 input  -60.11 | X-H torsion
[ 7974 7965 7964 7962 ] final -167.96 input  175.53 | X-H torsion
[ 8008 7997 7996 7995 ] final -121.18 input   59.86 | X-H torsion
[ 10167 10162 10161 10158 ] final  137.47 input  -65.29 | X-H torsion
[ 10718 10713 10712 10709 ] final   97.38 input   66.30 | X-H torsion
[ 10763 10752 10751 10750 ] final  -43.69 input  -60.55 | X-H torsion
[ 11005 11000 10999 10996 ] final -117.29 input  -57.11 | X-H torsion

> <Gold.Protein.ActiveResidues>
 VAL166  LYS551  ARG553  GLY616  TRP617  ASP618  TYR619  PRO620  LYS621  CYS622 
 ASP623  PHE694  ASN695  SER759  ASP760  ASP761  ALA762  ILE779  LEU786  VAL792 
 PHE793  MET794  SER795  GLU796  ALA797  LYS798  CYS799  TRP800  GLU811  SER814 

> <Gold.Protein.RotatedAtoms>
  151.1390  133.4984  159.2597 H   0  0  0  0  0  0  0  0  0  0  0  0  # atno 6907 bound_to 6896
  151.1675  135.0302  159.8747 H   0  0  0  0  0  0  0  0  0  0  0  0  # atno 6908 bound_to 6896
  152.5462  134.1257  159.8471 H   0  0  0  0  0  0  0  0  0  0  0  0  # atno 6909 bound_to 6896
  144.7212  140.2441  143.6287 H   0  0  0  0  0  0  0  0  0  0  0  0  # atno 7974 bound_to 7965
  155.1438  140.0402  157.2805 H   0  0  0  0  0  0  0  0  0  0  0  0  # atno 8008 bound_to 7997
  154.6453  140.2556  155.7248 H   0  0  0  0  0  0  0  0  0  0  0  0  # atno 8009 bound_to 7997
  156.2552  140.2847  156.0864 H   0  0  0  0  0  0  0  0  0  0  0  0  # atno 8010 bound_to 7997
  139.5143  144.6408  151.5574 H   0  0  0  0  0  0  0  0  0  0  0  0  # atno 10167 bound_to 10162
  157.6913  131.0607  150.4635 H   0  0  0  0  0  0  0  0  0  0  0  0  # atno 10718 bound_to 10713
  153.9997  135.6695  153.4758 H   0  0  0  0  0  0  0  0  0  0  0  0  # atno 10763 bound_to 10752
  153.0668  135.4996  154.8213 H   0  0  0  0  0  0  0  0  0  0  0  0  # atno 10764 bound_to 10752
  154.7060  135.3088  154.9233 H   0  0  0  0  0  0  0  0  0  0  0  0  # atno 10765 bound_to 10752
  141.0364  133.9902  157.3063 H   0  0  0  0  0  0  0  0  0  0  0  0  # atno 11005 bound_to 11000
  145.8291  139.2078  143.1893 LP  0  0  0  0  0  0  0  0  0  0  0  0  # atno 17320 bound_to 7965
  146.0446  140.8130  142.9811 LP  0  0  0  0  0  0  0  0  0  0  0  0  # atno 17321 bound_to 7965
  140.6174  143.9323  150.6499 LP  0  0  0  0  0  0  0  0  0  0  0  0  # atno 17342 bound_to 10162
  140.2585  143.3541  152.1343 LP  0  0  0  0  0  0  0  0  0  0  0  0  # atno 17343 bound_to 10162
  156.4978  130.4110  149.6370 LP  0  0  0  0  0  0  0  0  0  0  0  0  # atno 17370 bound_to 10713
  156.3357  130.7355  151.2292 LP  0  0  0  0  0  0  0  0  0  0  0  0  # atno 17371 bound_to 10713
  139.9244  135.0201  156.8181 LP  0  0  0  0  0  0  0  0  0  0  0  0  # atno 17394 bound_to 11000
  140.6314  133.9902  155.7663 LP  0  0  0  0  0  0  0  0  0  0  0  0  # atno 17395 bound_to 11000

$$$$
