AV-unprocessed.smi:3157|AV-procd|sdf|12037|dock8
  -GOLD-   2272017453D 1   1.00000     0.00000
 Structure written by MMmdl.
 40 41  0  0  0  0  0  0  0  0  2 V2000
  148.3763  140.8962  157.4475 C   0  0  0  0  0  0  0  0  0  0  0  0
  149.7586  141.2681  156.8770 C   0  0  2  0  0  0  0  0  0  0  0  0
  150.1033  142.6565  157.2642 N   0  3  0  0  0  0  0  0  0  0  0  0
  151.5221  143.0301  157.0899 C   0  0  0  0  0  0  0  0  0  0  0  0
  152.0182  143.8791  158.2712 C   0  0  0  0  0  0  0  0  0  0  0  0
  152.1856  143.0817  159.5666 C   0  0  0  0  0  0  0  0  0  0  0  0
  152.1915  144.1325  160.6820 C   0  0  0  0  0  0  0  0  0  0  0  0
  151.4577  145.3596  160.1198 C   0  0  0  0  0  0  0  0  0  0  0  0
  151.0615  145.0028  158.6826 C   0  0  0  0  0  0  0  0  0  0  0  0
  149.8264  141.1218  155.3342 C   0  0  2  0  0  0  0  0  0  0  0  0
  148.6108  141.7220  154.6031 C   0  0  0  0  0  0  0  0  0  0  0  0
  149.9871  139.7216  154.9562 N   0  0  0  0  0  0  0  0  0  0  0  0
  149.1942  138.6387  155.2823 C   0  0  0  0  0  0  0  0  0  0  0  0
  149.7676  137.5305  154.7284 C   0  0  0  0  0  0  0  0  0  0  0  0
  150.9285  138.0379  154.0818 C   0  0  0  0  0  0  0  0  0  0  0  0
  151.0625  139.3459  154.2290 N   0  0  0  0  0  0  0  0  0  0  0  0
  148.1315  139.8510  157.2603 H   0  0  0  0  0  0  0  0  0  0  0  0
  147.5883  141.5078  157.0068 H   0  0  0  0  0  0  0  0  0  0  0  0
  148.3351  141.0337  158.5277 H   0  0  0  0  0  0  0  0  0  0  0  0
  150.5034  140.5980  157.3098 H   0  0  0  0  0  0  0  0  0  0  0  0
  149.5587  143.2768  156.6811 H   0  0  0  0  0  0  0  0  0  0  0  0
  152.1389  142.1379  156.9820 H   0  0  0  0  0  0  0  0  0  0  0  0
  151.6217  143.6010  156.1656 H   0  0  0  0  0  0  0  0  0  0  0  0
  152.9852  144.3183  158.0190 H   0  0  0  0  0  0  0  0  0  0  0  0
  151.3343  142.4132  159.7050 H   0  0  0  0  0  0  0  0  0  0  0  0
  153.0879  142.4696  159.5676 H   0  0  0  0  0  0  0  0  0  0  0  0
  151.7199  143.7534  161.5892 H   0  0  0  0  0  0  0  0  0  0  0  0
  153.2169  144.4032  160.9369 H   0  0  0  0  0  0  0  0  0  0  0  0
  150.5843  145.6213  160.7182 H   0  0  0  0  0  0  0  0  0  0  0  0
  152.1254  146.2220  160.1238 H   0  0  0  0  0  0  0  0  0  0  0  0
  151.1125  145.8629  158.0141 H   0  0  0  0  0  0  0  0  0  0  0  0
  150.0329  144.6392  158.6723 H   0  0  0  0  0  0  0  0  0  0  0  0
  150.7081  141.6601  154.9802 H   0  0  0  0  0  0  0  0  0  0  0  0
  148.5689  142.8052  154.7136 H   0  0  0  0  0  0  0  0  0  0  0  0
  147.6728  141.3115  154.9778 H   0  0  0  0  0  0  0  0  0  0  0  0
  148.6591  141.5166  153.5329 H   0  0  0  0  0  0  0  0  0  0  0  0
  148.2973  138.7438  155.8750 H   0  0  0  0  0  0  0  0  0  0  0  0
  149.4128  136.5116  154.7788 H   0  0  0  0  0  0  0  0  0  0  0  0
  151.6754  137.4980  153.5185 H   0  0  0  0  0  0  0  0  0  0  0  0
  149.8309  142.8061  158.2251 H   0  0  0  0  0  0  0  0  0  0  0  0
  1  2  1  0  0  0  0
  1 17  1  0  0  0  0
  1 18  1  0  0  0  0
  1 19  1  0  0  0  0
  2  3  1  0  0  0  0
  2 10  1  0  0  0  0
  2 20  1  0  0  0  0
  3  4  1  0  0  0  0
  3 21  1  0  0  0  0
  3 40  1  0  0  0  0
  4  5  1  0  0  0  0
  4 22  1  0  0  0  0
  4 23  1  0  0  0  0
  5  9  1  0  0  0  0
  5  6  1  0  0  0  0
  5 24  1  0  0  0  0
  6  7  1  0  0  0  0
  6 25  1  0  0  0  0
  6 26  1  0  0  0  0
  7  8  1  0  0  0  0
  7 27  1  0  0  0  0
  7 28  1  0  0  0  0
  8  9  1  0  0  0  0
  8 29  1  0  0  0  0
  8 30  1  0  0  0  0
  9 31  1  0  0  0  0
  9 32  1  0  0  0  0
 10 11  1  0  0  0  0
 10 12  1  0  0  0  0
 10 33  1  0  0  0  0
 11 34  1  0  0  0  0
 11 35  1  0  0  0  0
 11 36  1  0  0  0  0
 12 16  1  0  0  0  0
 12 13  1  0  0  0  0
 13 14  2  0  0  0  0
 13 37  1  0  0  0  0
 14 15  1  0  0  0  0
 14 38  1  0  0  0  0
 15 16  2  0  0  0  0
 15 39  1  0  0  0  0
M  CHG  1   3   1
M  END
> <s_m_source_file>
AV-unprocessed.smi

> <i_m_source_file_index>
3157

> <i_lp_mmshare_version>
43012

> <i_f3d_flags>
0

> <s_epik_input>
bjFbY0hdW2NIXVtjSF1uMVtDQEBIXShbQ0gzXSlbQ0BIXShbQ0gzXSlbTkhdW0NIMl1bQ0hdMltDSDJdW0NIMl1bQ0gyXVtDSDJdMg==

> <s_epik_cmdline>
J2VwaWtfcHl0aG9uJywgJy1waCcsICc3LjAnLCAnLXRuJywgJzgnLCAnLW1hJywgJzIwMCcsICctbWV0YWxfYmluZGluZycsICctaW1hZScsICc8aW5maWxlLm1hZT4nLCAnLW9tYWUnLCAnPG91dGZpbGUubWFlPic=

> <r_lp_tautomer_probability>
1

> <r_epik_Ionization_Penalty>
0.00132192

> <r_epik_Ionization_Penalty_Charging>
0.0013111

> <r_epik_Ionization_Penalty_Neutral>
1.08112e-05

> <r_epik_State_Penalty>
-0

> <r_epik_Charging_Adjusted_Penalty>
0.0013111

> <i_epik_Tot_Q>
1

> <i_epik_Tot_abs_Q>
1

> <r_epik_Metal_State_Penalty>
-0

> <b_epik_Metal_Only>
0

> <s_lp_Force_Field>
OPLS_2005

> <r_lp_Energy>
31.0944

> <b_lp_Chiralities_Consistent>
1

> <s_lp_Variant>
AV-unprocessed.smi:3157-1

> <Gold.Version>
5.8.1

> <Gold.Id.Protein>
6NUR|6NUR_protein|mol2

> <Gold.PLP.Fitness>
46.9387

> <Gold.PLP.PLP>
-37.2289

> <Gold.PLP.part.hbond>
-2.0000

> <Gold.PLP.part.metal>
0.0000

> <Gold.PLP.part.buried>
-3.7544

> <Gold.PLP.part.nonpolar>
-32.3629

> <Gold.PLP.part.repulsive>
0.1744

> <Gold.PLP.ligand.clash>
0.0000

> <Gold.PLP.ligand.torsion>
0.8444

> <Gold.PLP.Chemscore.Hbond>
3.0000

> <Gold.PLP.Chemscore.CHOScore>
0.7601

> <Gold.PLP.Chemscore.Metal>
0.0000

> <Gold.Chemscore.Hbonds>
donor molecule, donor type, donor heavy atom, donor atom, acceptor molecule, acceptor atom, score
      L1  H     3    21       P1  8028  2.00
      P1  H  7989  7998       L1    16  1.00
      L1  C    15    39       P1  7949  0.79

> <Gold.PLP.Chemscore.Internal.Correction>
0.1181

> <Gold.Rescore>
     Score         DG    S(hbond)    S(metal)    S(lipo)     H(rot)  DE(clash)    DE(int)     intcor
     19.28     -20.80       1.93        0.00     108.77       1.50       0.52       1.00       ----

> <Gold.Chemscore.Fitness>
19.2827

> <Gold.Chemscore.DG>
-20.8009

> <Gold.Chemscore.ZeroCoef>
-5.4800

> <Gold.Chemscore.Hbond>
1.9302

> <Gold.Chemscore.Metal>
0.0000

> <Gold.Chemscore.Lipo>
108.7681

> <Gold.Chemscore.Internal_Hbond>
0.0000

> <Gold.Chemscore.DEClash>
0.5194

> <Gold.Chemscore.DEInternal>
0.9988

> <Gold.Chemscore.Rot>
1.5047

> <Gold.Chemscore.Internal.Correction>
   9.000000E+99

> <Gold.Chemscore.Hbonds>
donor molecule, donor type, donor heavy atom, donor atom, acceptor molecule, acceptor atom, score
      L1  H     3    21       P1  8028  1.00
      P1  H  7989  7998       L1    16  0.50

> <Gold.Chemscore.Hbond.Weighted>
-6.4470

> <Gold.Chemscore.Metal.Weighted>
-0.0000

> <Gold.Chemscore.Lipo.Weighted>
-12.7259

> <Gold.Chemscore.Internal_Hbond.Weighted>
0.0000

> <Gold.Chemscore.DEClash.Weighted>
0.5194

> <Gold.Chemscore.DEInternal.Weighted>
0.9988

> <Gold.Chemscore.Rot.Weighted>
3.8520

> <Gold.Chemscore.Internal.Correction.Weighted>
   9.000000E+99

> <Gold.Protein.RotatedTorsions>
[ 6907 6896 6895 6894 ] final   60.67 input  -60.11 | X-H torsion
[ 7974 7965 7964 7962 ] final -120.87 input  175.53 | X-H torsion
[ 8008 7997 7996 7995 ] final   34.38 input   59.86 | X-H torsion
[ 10167 10162 10161 10158 ] final  -51.38 input  -65.29 | X-H torsion
[ 10718 10713 10712 10709 ] final  -81.39 input   66.30 | X-H torsion
[ 10763 10752 10751 10750 ] final  167.80 input  -60.55 | X-H torsion
[ 11005 11000 10999 10996 ] final  -70.29 input  -57.11 | X-H torsion

> <Gold.Protein.ActiveResidues>
 VAL166  LYS551  ARG553  GLY616  TRP617  ASP618  TYR619  PRO620  LYS621  CYS622 
 ASP623  PHE694  ASN695  SER759  ASP760  ASP761  ALA762  ILE779  LEU786  VAL792 
 PHE793  MET794  SER795  GLU796  ALA797  LYS798  CYS799  TRP800  GLU811  SER814 

> <Gold.Protein.RotatedAtoms>
  152.4023  134.6266  160.0064 H   0  0  0  0  0  0  0  0  0  0  0  0  # atno 6907 bound_to 6896
  151.6467  133.3317  159.3150 H   0  0  0  0  0  0  0  0  0  0  0  0  # atno 6908 bound_to 6896
  150.7922  134.6996  159.6587 H   0  0  0  0  0  0  0  0  0  0  0  0  # atno 6909 bound_to 6896
  145.0466  140.8186  143.4234 H   0  0  0  0  0  0  0  0  0  0  0  0  # atno 7974 bound_to 7965
  155.1539  140.3277  155.4425 H   0  0  0  0  0  0  0  0  0  0  0  0  # atno 8008 bound_to 7997
  156.2565  140.1972  156.6599 H   0  0  0  0  0  0  0  0  0  0  0  0  # atno 8009 bound_to 7997
  154.6453  140.0565  156.9880 H   0  0  0  0  0  0  0  0  0  0  0  0  # atno 8010 bound_to 7997
  140.6591  143.2622  151.4495 H   0  0  0  0  0  0  0  0  0  0  0  0  # atno 10167 bound_to 10162
  156.0051  130.4602  150.3946 H   0  0  0  0  0  0  0  0  0  0  0  0  # atno 10718 bound_to 10713
  154.3593  135.2753  155.2329 H   0  0  0  0  0  0  0  0  0  0  0  0  # atno 10763 bound_to 10752
  154.4524  135.5927  153.6204 H   0  0  0  0  0  0  0  0  0  0  0  0  # atno 10764 bound_to 10752
  152.9844  135.6045  154.3811 H   0  0  0  0  0  0  0  0  0  0  0  0  # atno 10765 bound_to 10752
  141.1571  133.6786  156.6731 H   0  0  0  0  0  0  0  0  0  0  0  0  # atno 11005 bound_to 11000
  145.1580  139.2475  143.5406 LP  0  0  0  0  0  0  0  0  0  0  0  0  # atno 17320 bound_to 7965
  146.3514  140.1300  142.8597 LP  0  0  0  0  0  0  0  0  0  0  0  0  # atno 17321 bound_to 7965
  139.5821  144.1687  152.1981 LP  0  0  0  0  0  0  0  0  0  0  0  0  # atno 17342 bound_to 10162
  140.1015  144.5535  150.6985 LP  0  0  0  0  0  0  0  0  0  0  0  0  # atno 17343 bound_to 10162
  157.2018  131.0440  151.2646 LP  0  0  0  0  0  0  0  0  0  0  0  0  # atno 17370 bound_to 10713
  157.3968  130.7312  149.6738 LP  0  0  0  0  0  0  0  0  0  0  0  0  # atno 17371 bound_to 10713
  140.3160  134.8047  157.4214 LP  0  0  0  0  0  0  0  0  0  0  0  0  # atno 17394 bound_to 11000
  140.1138  134.5311  155.8243 LP  0  0  0  0  0  0  0  0  0  0  0  0  # atno 17395 bound_to 11000

$$$$
