AV-unprocessed.smi:705|AV-procd|sdf|3450|dock3
  -GOLD-   22720 0433D 1   1.00000     0.00000
 Structure written by MMmdl.
 28 29  0  0  0  0  0  0  0  0  3 V2000
  148.9207  137.8874  158.6866 N   0  0  0  0  0  0  0  0  0  0  0  0
  150.2385  137.7084  158.5667 C   0  0  0  0  0  0  0  0  0  0  0  0
  150.7823  136.6147  158.7104 O   0  0  0  0  0  0  0  0  0  0  0  0
  151.0279  138.9415  158.2432 C   0  0  0  0  0  0  0  0  0  0  0  0
  150.5010  140.2561  158.3133 C   0  0  0  0  0  0  0  0  0  0  0  0
  151.6835  140.9803  157.9130 C   0  0  0  0  0  0  0  0  0  0  0  0
  151.5991  142.4933  157.8529 C   0  0  2  0  0  0  0  0  0  0  0  0
  152.6133  143.1574  158.8021 C   0  0  0  0  0  0  0  0  0  0  0  0
  152.4732  144.6866  158.7529 C   0  0  0  0  0  0  0  0  0  0  0  0
  151.0233  145.1148  159.0355 C   0  0  0  0  0  0  0  0  0  0  0  0
  150.0902  144.4563  158.0955 N   0  3  0  0  0  0  0  0  0  0  0  0
  150.1670  142.9803  158.1461 C   0  0  0  0  0  0  0  0  0  0  0  0
  152.7285  140.1731  157.6508 N   0  0  0  0  0  0  0  0  0  0  0  0
  152.3178  138.9342  157.8580 N   0  5  0  0  0  0  0  0  0  0  0  0
  148.3168  137.1090  158.9023 H   0  0  0  0  0  0  0  0  0  0  0  0
  148.5446  138.8162  158.5560 H   0  0  0  0  0  0  0  0  0  0  0  0
  149.5132  140.6055  158.5875 H   0  0  0  0  0  0  0  0  0  0  0  0
  151.8505  142.7985  156.8356 H   0  0  0  0  0  0  0  0  0  0  0  0
  152.4475  142.8106  159.8232 H   0  0  0  0  0  0  0  0  0  0  0  0
  153.6296  142.8656  158.5352 H   0  0  0  0  0  0  0  0  0  0  0  0
  153.1466  145.1462  159.4771 H   0  0  0  0  0  0  0  0  0  0  0  0
  152.7793  145.0505  157.7711 H   0  0  0  0  0  0  0  0  0  0  0  0
  150.7438  144.8575  160.0582 H   0  0  0  0  0  0  0  0  0  0  0  0
  150.9225  146.1960  158.9393 H   0  0  0  0  0  0  0  0  0  0  0  0
  149.1462  144.7414  158.3143 H   0  0  0  0  0  0  0  0  0  0  0  0
  149.4680  142.5649  157.4196 H   0  0  0  0  0  0  0  0  0  0  0  0
  149.8415  142.6415  159.1309 H   0  0  0  0  0  0  0  0  0  0  0  0
  150.3132  144.7556  157.1571 H   0  0  0  0  0  0  0  0  0  0  0  0
  1  2  1  0  0  0  0
  1 15  1  0  0  0  0
  1 16  1  0  0  0  0
  2  3  2  0  0  0  0
  2  4  1  0  0  0  0
  4 14  1  0  0  0  0
  4  5  2  0  0  0  0
  5  6  1  0  0  0  0
  5 17  1  0  0  0  0
  6  7  1  0  0  0  0
  6 13  2  0  0  0  0
  7 12  1  0  0  0  0
  7  8  1  0  0  0  0
  7 18  1  0  0  0  0
  8  9  1  0  0  0  0
  8 19  1  0  0  0  0
  8 20  1  0  0  0  0
  9 10  1  0  0  0  0
  9 21  1  0  0  0  0
  9 22  1  0  0  0  0
 10 11  1  0  0  0  0
 10 23  1  0  0  0  0
 10 24  1  0  0  0  0
 11 12  1  0  0  0  0
 11 25  1  0  0  0  0
 11 28  1  0  0  0  0
 12 26  1  0  0  0  0
 12 27  1  0  0  0  0
 13 14  1  0  0  0  0
M  CHG  1  11   1
M  CHG  1  14  -1
M  END
> <s_m_source_file>
AV-unprocessed.smi

> <i_m_source_file_index>
705

> <i_lp_mmshare_version>
43012

> <i_f3d_flags>
0

> <s_epik_input>
W05IMl1DKD1PKWMxW2NIXWMoW25IXW4xKVtDQEBIXTJbQ0gyXVtDSDJdW0NIMl1bTkhdW0NIMl0y

> <s_epik_cmdline>
J2VwaWtfcHl0aG9uJywgJy1waCcsICc3LjAnLCAnLXRuJywgJzgnLCAnLW1hJywgJzIwMCcsICctbWV0YWxfYmluZGluZycsICctaW1hZScsICc8aW5maWxlLm1hZT4nLCAnLW9tYWUnLCAnPG91dGZpbGUubWFlPic=

> <r_lp_tautomer_probability>
0.5

> <r_epik_Ionization_Penalty>
8.1602

> <r_epik_Ionization_Penalty_Charging>
5.25561

> <r_epik_Ionization_Penalty_Neutral>
2.90459

> <r_epik_State_Penalty>
5.66605

> <r_epik_Charging_Adjusted_Penalty>
10.9217

> <i_epik_Tot_Q>
0

> <i_epik_Tot_abs_Q>
2

> <r_epik_Metal_State_Penalty>
1.68656

> <b_epik_Metal_Only>
1

> <s_lp_Force_Field>
OPLS_2005

> <r_lp_Energy>
5.1844

> <b_lp_Chiralities_Consistent>
1

> <s_lp_Variant>
AV-unprocessed.smi:705-5

> <Gold.Version>
5.8.1

> <Gold.Id.Protein>
6NUR|6NUR_protein|mol2

> <Gold.PLP.Fitness>
37.5239

> <Gold.PLP.PLP>
-25.6106

> <Gold.PLP.part.hbond>
-4.0000

> <Gold.PLP.part.metal>
0.0000

> <Gold.PLP.part.buried>
-2.1725

> <Gold.PLP.part.nonpolar>
-19.2780

> <Gold.PLP.part.repulsive>
0.3069

> <Gold.PLP.ligand.clash>
0.0119

> <Gold.PLP.ligand.torsion>
0.0840

> <Gold.PLP.Chemscore.Hbond>
4.0240

> <Gold.PLP.Chemscore.CHOScore>
0.0000

> <Gold.PLP.Chemscore.Metal>
0.0000

> <Gold.Chemscore.Hbonds>
donor molecule, donor type, donor heavy atom, donor atom, acceptor molecule, acceptor atom, score
      L1  H    11    25       P1  8029  1.15
      L1  H    11    28       P1  8028  0.86
      P1  H  6896  6908       L1     3  0.98
      P1  H  7997  8010       L1    13  0.96

> <Gold.PLP.Chemscore.Internal.Correction>
0.0213

> <Gold.Rescore>
     Score         DG    S(hbond)    S(metal)    S(lipo)     H(rot)  DE(clash)    DE(int)     intcor
     18.23     -18.54       2.24        0.00      69.47       1.00       0.13       0.18       ----

> <Gold.Chemscore.Fitness>
18.2255

> <Gold.Chemscore.DG>
-18.5400

> <Gold.Chemscore.ZeroCoef>
-5.4800

> <Gold.Chemscore.Hbond>
2.2433

> <Gold.Chemscore.Metal>
0.0000

> <Gold.Chemscore.Lipo>
69.4657

> <Gold.Chemscore.Internal_Hbond>
0.0000

> <Gold.Chemscore.DEClash>
0.1303

> <Gold.Chemscore.DEInternal>
0.1842

> <Gold.Chemscore.Rot>
1.0000

> <Gold.Chemscore.Internal.Correction>
   9.000000E+99

> <Gold.Chemscore.Hbonds>
donor molecule, donor type, donor heavy atom, donor atom, acceptor molecule, acceptor atom, score
      L1  H    11    25       P1  8029  0.27
      L1  H    11    28       P1  8028  0.16
      P1  H  6896  6908       L1     3  0.93
      P1  H  7997  8010       L1    13  0.55

> <Gold.Chemscore.Hbond.Weighted>
-7.4925

> <Gold.Chemscore.Metal.Weighted>
-0.0000

> <Gold.Chemscore.Lipo.Weighted>
-8.1275

> <Gold.Chemscore.Internal_Hbond.Weighted>
0.0000

> <Gold.Chemscore.DEClash.Weighted>
0.1303

> <Gold.Chemscore.DEInternal.Weighted>
0.1842

> <Gold.Chemscore.Rot.Weighted>
2.5600

> <Gold.Chemscore.Internal.Correction.Weighted>
   9.000000E+99

> <Gold.Protein.RotatedTorsions>
[ 6907 6896 6895 6894 ] final -149.46 input  -60.11 | X-H torsion
[ 7974 7965 7964 7962 ] final  150.27 input  175.53 | X-H torsion
[ 8008 7997 7996 7995 ] final   41.33 input   59.86 | X-H torsion
[ 10167 10162 10161 10158 ] final -146.98 input  -65.29 | X-H torsion
[ 10718 10713 10712 10709 ] final  167.56 input   66.30 | X-H torsion
[ 10763 10752 10751 10750 ] final  122.13 input  -60.55 | X-H torsion
[ 11005 11000 10999 10996 ] final  -59.37 input  -57.11 | X-H torsion

> <Gold.Protein.ActiveResidues>
 VAL166  LYS551  ARG553  GLY616  TRP617  ASP618  TYR619  PRO620  LYS621  CYS622 
 ASP623  PHE694  ASN695  SER759  ASP760  ASP761  ALA762  ILE779  LEU786  VAL792 
 PHE793  MET794  SER795  GLU796  ALA797  LYS798  CYS799  TRP800  GLU811  SER814 

> <Gold.Protein.RotatedAtoms>
  151.1845  133.4705  159.2594 H   0  0  0  0  0  0  0  0  0  0  0  0  # atno 6907 bound_to 6896
  151.1226  135.0087  159.8555 H   0  0  0  0  0  0  0  0  0  0  0  0  # atno 6908 bound_to 6896
  152.5456  134.1755  159.8667 H   0  0  0  0  0  0  0  0  0  0  0  0  # atno 6909 bound_to 6896
  144.8376  139.6387  143.6031 H   0  0  0  0  0  0  0  0  0  0  0  0  # atno 7974 bound_to 7965
  155.2678  140.3364  155.4267 H   0  0  0  0  0  0  0  0  0  0  0  0  # atno 8008 bound_to 7997
  156.2146  140.1784  156.7660 H   0  0  0  0  0  0  0  0  0  0  0  0  # atno 8009 bound_to 7997
  154.5735  140.0666  156.8984 H   0  0  0  0  0  0  0  0  0  0  0  0  # atno 8010 bound_to 7997
  139.7664  143.8302  152.2617 H   0  0  0  0  0  0  0  0  0  0  0  0  # atno 10167 bound_to 10162
  157.0498  131.0310  151.2684 H   0  0  0  0  0  0  0  0  0  0  0  0  # atno 10718 bound_to 10713
  153.6249  135.3406  155.3023 H   0  0  0  0  0  0  0  0  0  0  0  0  # atno 10763 bound_to 10752
  154.8592  135.4281  154.2168 H   0  0  0  0  0  0  0  0  0  0  0  0  # atno 10764 bound_to 10752
  153.3050  135.7027  153.7241 H   0  0  0  0  0  0  0  0  0  0  0  0  # atno 10765 bound_to 10752
  141.1245  133.6616  156.5061 H   0  0  0  0  0  0  0  0  0  0  0  0  # atno 11005 bound_to 11000
  146.2673  139.6551  142.9320 LP  0  0  0  0  0  0  0  0  0  0  0  0  # atno 17320 bound_to 7965
  145.4761  141.0437  143.2672 LP  0  0  0  0  0  0  0  0  0  0  0  0  # atno 17321 bound_to 7965
  139.8323  144.7248  150.9435 LP  0  0  0  0  0  0  0  0  0  0  0  0  # atno 17342 bound_to 10162
  140.7811  143.4058  151.1073 LP  0  0  0  0  0  0  0  0  0  0  0  0  # atno 17343 bound_to 10162
  157.5039  130.7897  149.7633 LP  0  0  0  0  0  0  0  0  0  0  0  0  # atno 17370 bound_to 10713
  156.0011  130.3880  150.2602 LP  0  0  0  0  0  0  0  0  0  0  0  0  # atno 17371 bound_to 10713
  140.4406  134.7019  157.4990 LP  0  0  0  0  0  0  0  0  0  0  0  0  # atno 17394 bound_to 11000
  140.0231  134.6517  155.9211 LP  0  0  0  0  0  0  0  0  0  0  0  0  # atno 17395 bound_to 11000

$$$$
