AV-unprocessed.smi:65|AV-procd|sdf|613|dock7
  -GOLD-   2262016503D 1   1.00000     0.00000
 Structure written by MMmdl.
 25 26  0  0  0  0  0  0  0  0  1 V2000
  153.4400  141.3927  159.5088 N   0  0  0  0  0  0  0  0  0  0  0  0
  152.5567  141.6062  158.4791 C   0  0  0  0  0  0  0  0  0  0  0  0
  152.0936  142.8487  158.3377 N   0  0  0  0  0  0  0  0  0  0  0  0
  151.2239  143.0564  157.3263 C   0  0  0  0  0  0  0  0  0  0  0  0
  150.8257  142.0169  156.4614 C   0  0  0  0  0  0  0  0  0  0  0  0
  151.3841  140.7386  156.7012 C   0  0  0  0  0  0  0  0  0  0  0  0
  151.0500  139.6280  155.9027 N   0  0  0  0  0  0  0  0  0  0  0  0
  149.9759  139.6940  154.9199 C   0  0  0  0  0  0  0  0  0  0  0  0
  150.3469  138.6776  153.8328 C   0  0  0  0  0  0  0  0  0  0  0  0
  151.3116  137.7256  154.5415 C   0  0  1  0  0  0  0  0  0  0  0  0
  152.1867  137.0748  153.6451 O   0  0  0  0  0  0  0  0  0  0  0  0
  152.0513  138.6499  155.5071 C   0  0  0  0  0  0  0  0  0  0  0  0
  152.2516  140.5483  157.7253 N   0  0  0  0  0  0  0  0  0  0  0  0
  153.8261  140.4735  159.6684 H   0  0  0  0  0  0  0  0  0  0  0  0
  153.6931  142.1477  160.1294 H   0  0  0  0  0  0  0  0  0  0  0  0
  150.8405  144.0588  157.2065 H   0  0  0  0  0  0  0  0  0  0  0  0
  150.1222  142.2042  155.6640 H   0  0  0  0  0  0  0  0  0  0  0  0
  149.0388  139.4179  155.4042 H   0  0  0  0  0  0  0  0  0  0  0  0
  149.8628  140.6922  154.4958 H   0  0  0  0  0  0  0  0  0  0  0  0
  149.4791  138.1710  153.4096 H   0  0  0  0  0  0  0  0  0  0  0  0
  150.8624  139.1936  153.0212 H   0  0  0  0  0  0  0  0  0  0  0  0
  150.7454  136.9812  155.1035 H   0  0  0  0  0  0  0  0  0  0  0  0
  151.6845  136.7659  152.9065 H   0  0  0  0  0  0  0  0  0  0  0  0
  152.8744  139.1619  155.0063 H   0  0  0  0  0  0  0  0  0  0  0  0
  152.4504  138.1061  156.3641 H   0  0  0  0  0  0  0  0  0  0  0  0
  1  2  1  0  0  0  0
  1 14  1  0  0  0  0
  1 15  1  0  0  0  0
  2 13  1  0  0  0  0
  2  3  2  0  0  0  0
  3  4  1  0  0  0  0
  4  5  2  0  0  0  0
  4 16  1  0  0  0  0
  5  6  1  0  0  0  0
  5 17  1  0  0  0  0
  6  7  1  0  0  0  0
  6 13  2  0  0  0  0
  7 12  1  0  0  0  0
  7  8  1  0  0  0  0
  8  9  1  0  0  0  0
  8 18  1  0  0  0  0
  8 19  1  0  0  0  0
  9 10  1  0  0  0  0
  9 20  1  0  0  0  0
  9 21  1  0  0  0  0
 10 11  1  0  0  0  0
 10 12  1  0  0  0  0
 10 22  1  0  0  0  0
 11 23  1  0  0  0  0
 12 24  1  0  0  0  0
 12 25  1  0  0  0  0
M  END
> <s_m_source_file>
AV-unprocessed.smi

> <i_m_source_file_index>
65

> <i_lp_mmshare_version>
43012

> <i_f3d_flags>
0

> <s_epik_input>
W05IMl1jMW5bY0hdW2NIXWMobjEpTjJbQ0gyXVtDSDJdW0NAQEhdKFtPSF0pW0NIMl0y

> <s_epik_cmdline>
J2VwaWtfcHl0aG9uJywgJy1waCcsICc3LjAnLCAnLXRuJywgJzgnLCAnLW1hJywgJzIwMCcsICctbWV0YWxfYmluZGluZycsICctaW1hZScsICc8aW5maWxlLm1hZT4nLCAnLW9tYWUnLCAnPG91dGZpbGUubWFlPic=

> <r_lp_tautomer_probability>
1

> <r_epik_Ionization_Penalty>
0.99295

> <r_epik_Ionization_Penalty_Charging>
0

> <r_epik_Ionization_Penalty_Neutral>
0.99295

> <r_epik_State_Penalty>
0.750885

> <r_epik_Charging_Adjusted_Penalty>
0.750885

> <i_epik_Tot_Q>
0

> <i_epik_Tot_abs_Q>
0

> <r_epik_Metal_State_Penalty>
0.338511

> <b_epik_Metal_Only>
0

> <s_lp_Force_Field>
OPLS_2005

> <r_lp_Energy>
17.7727

> <b_lp_Chiralities_Consistent>
1

> <s_lp_Variant>
AV-unprocessed.smi:65-3

> <Gold.Version>
5.8.1

> <Gold.Id.Protein>
6NUR|6NUR_protein|mol2

> <Gold.PLP.Fitness>
32.6896

> <Gold.PLP.PLP>
-24.3433

> <Gold.PLP.part.hbond>
-2.0000

> <Gold.PLP.part.metal>
0.0000

> <Gold.PLP.part.buried>
-2.6507

> <Gold.PLP.part.nonpolar>
-19.6755

> <Gold.PLP.part.repulsive>
0.0985

> <Gold.PLP.ligand.clash>
0.0000

> <Gold.PLP.ligand.torsion>
0.3292

> <Gold.PLP.Chemscore.Hbond>
2.0000

> <Gold.PLP.Chemscore.CHOScore>
0.9316

> <Gold.PLP.Chemscore.Metal>
0.0000

> <Gold.Chemscore.Hbonds>
donor molecule, donor type, donor heavy atom, donor atom, acceptor molecule, acceptor atom, score
      L1  H    11    23       P1  7949  1.00
      P1  H 10752 10765       L1    11  1.00
      L1  C     4    16       P1  8028  0.87

> <Gold.PLP.Chemscore.Internal.Correction>
0.2099

> <Gold.Rescore>
     Score         DG    S(hbond)    S(metal)    S(lipo)     H(rot)  DE(clash)    DE(int)     intcor
     14.19     -15.01       1.87        0.00      49.93       1.00       0.36       0.46       ----

> <Gold.Chemscore.Fitness>
14.1853

> <Gold.Chemscore.DG>
-15.0054

> <Gold.Chemscore.ZeroCoef>
-5.4800

> <Gold.Chemscore.Hbond>
1.8694

> <Gold.Chemscore.Metal>
0.0000

> <Gold.Chemscore.Lipo>
49.9297

> <Gold.Chemscore.Internal_Hbond>
0.0000

> <Gold.Chemscore.DEClash>
0.3581

> <Gold.Chemscore.DEInternal>
0.4620

> <Gold.Chemscore.Rot>
1.0000

> <Gold.Chemscore.Internal.Correction>
   9.000000E+99

> <Gold.Chemscore.Hbonds>
donor molecule, donor type, donor heavy atom, donor atom, acceptor molecule, acceptor atom, score
      L1  H    11    23       P1  7949  0.99
      P1  H 10752 10765       L1    11  0.29

> <Gold.Chemscore.Hbond.Weighted>
-6.2437

> <Gold.Chemscore.Metal.Weighted>
-0.0000

> <Gold.Chemscore.Lipo.Weighted>
-5.8418

> <Gold.Chemscore.Internal_Hbond.Weighted>
0.0000

> <Gold.Chemscore.DEClash.Weighted>
0.3581

> <Gold.Chemscore.DEInternal.Weighted>
0.4620

> <Gold.Chemscore.Rot.Weighted>
2.5600

> <Gold.Chemscore.Internal.Correction.Weighted>
   9.000000E+99

> <Gold.Protein.RotatedTorsions>
[ 6907 6896 6895 6894 ] final   85.33 input  -60.11 | X-H torsion
[ 7974 7965 7964 7962 ] final   41.04 input  175.53 | X-H torsion
[ 8008 7997 7996 7995 ] final -167.35 input   59.86 | X-H torsion
[ 10167 10162 10161 10158 ] final  -75.47 input  -65.29 | X-H torsion
[ 10718 10713 10712 10709 ] final   61.22 input   66.30 | X-H torsion
[ 10763 10752 10751 10750 ] final  147.62 input  -60.55 | X-H torsion
[ 11005 11000 10999 10996 ] final   69.75 input  -57.11 | X-H torsion

> <Gold.Protein.ActiveResidues>
 VAL166  LYS551  ARG553  GLY616  TRP617  ASP618  TYR619  PRO620  LYS621  CYS622 
 ASP623  PHE694  ASN695  SER759  ASP760  ASP761  ALA762  ILE779  LEU786  VAL792 
 PHE793  MET794  SER795  GLU796  ALA797  LYS798  CYS799  TRP800  GLU811  SER814 

> <Gold.Protein.RotatedAtoms>
  152.5372  134.2603  159.8932 H   0  0  0  0  0  0  0  0  0  0  0  0  # atno 6907 bound_to 6896
  151.2563  133.4318  159.2621 H   0  0  0  0  0  0  0  0  0  0  0  0  # atno 6908 bound_to 6896
  151.0493  134.9676  159.8259 H   0  0  0  0  0  0  0  0  0  0  0  0  # atno 6909 bound_to 6896
  146.0856  139.5462  142.9509 H   0  0  0  0  0  0  0  0  0  0  0  0  # atno 7974 bound_to 7965
  155.8765  140.1002  157.1514 H   0  0  0  0  0  0  0  0  0  0  0  0  # atno 8008 bound_to 7997
  154.4001  140.1337  156.4206 H   0  0  0  0  0  0  0  0  0  0  0  0  # atno 8009 bound_to 7997
  155.7691  140.3461  155.5240 H   0  0  0  0  0  0  0  0  0  0  0  0  # atno 8010 bound_to 7997
  140.4940  143.2374  151.7861 H   0  0  0  0  0  0  0  0  0  0  0  0  # atno 10167 bound_to 10162
  157.5812  130.8983  149.9434 H   0  0  0  0  0  0  0  0  0  0  0  0  # atno 10718 bound_to 10713
  154.0414  135.2889  155.3354 H   0  0  0  0  0  0  0  0  0  0  0  0  # atno 10763 bound_to 10752
  154.6927  135.5220  153.8417 H   0  0  0  0  0  0  0  0  0  0  0  0  # atno 10764 bound_to 10752
  153.0598  135.6609  154.0618 H   0  0  0  0  0  0  0  0  0  0  0  0  # atno 10765 bound_to 10752
  139.9636  134.7019  156.0593 H   0  0  0  0  0  0  0  0  0  0  0  0  # atno 11005 bound_to 11000
  145.6137  141.0335  143.1953 LP  0  0  0  0  0  0  0  0  0  0  0  0  # atno 17320 bound_to 7965
  144.7323  139.7688  143.7342 LP  0  0  0  0  0  0  0  0  0  0  0  0  # atno 17321 bound_to 7965
  139.4857  144.4611  151.9539 LP  0  0  0  0  0  0  0  0  0  0  0  0  # atno 17342 bound_to 10162
  140.3699  144.2869  150.5921 LP  0  0  0  0  0  0  0  0  0  0  0  0  # atno 17343 bound_to 10162
  156.0858  130.3668  150.0490 LP  0  0  0  0  0  0  0  0  0  0  0  0  # atno 17370 bound_to 10713
  156.8629  130.9498  151.3616 LP  0  0  0  0  0  0  0  0  0  0  0  0  # atno 17371 bound_to 10713
  141.1315  133.6585  156.3477 LP  0  0  0  0  0  0  0  0  0  0  0  0  # atno 17394 bound_to 11000
  140.5445  134.6088  157.5390 LP  0  0  0  0  0  0  0  0  0  0  0  0  # atno 17395 bound_to 11000

$$$$
