AV-unprocessed.smi:771|AV-procd|sdf|3682|dock1
  -GOLD-   22720 1 93D 1   1.00000     0.00000
 Structure written by MMmdl.
 41 42  0  0  0  0  0  0  0  0  3 V2000
  148.2800  137.2897  154.9200 O   0  0  0  0  0  0  0  0  0  0  0  0
  147.8011  137.4494  153.7965 C   0  0  0  0  0  0  0  0  0  0  0  0
  147.4731  138.8568  153.2802 C   0  0  0  0  0  0  0  0  0  0  0  0
  148.6770  139.6423  152.9598 N   0  0  0  0  0  0  0  0  0  0  0  0
  149.4467  139.2201  151.8579 C   0  0  0  0  0  0  0  0  0  0  0  0
  150.5643  139.8684  151.4749 C   0  0  0  0  0  0  0  0  0  0  0  0
  151.3415  139.4225  150.3394 N   0  3  0  0  0  0  0  0  0  0  0  0
  151.0427  138.3607  149.8024 O   0  0  0  0  0  0  0  0  0  0  0  0
  152.2737  140.1175  149.9457 O   0  5  0  0  0  0  0  0  0  0  0  0
  150.9631  141.0344  152.2394 C   0  0  0  0  0  0  0  0  0  0  0  0
  150.2296  141.4449  153.2927 C   0  0  0  0  0  0  0  0  0  0  0  0
  149.0134  140.7384  153.7072 C   0  0  0  0  0  0  0  0  0  0  0  0
  148.3376  141.1092  154.6675 O   0  0  0  0  0  0  0  0  0  0  0  0
  147.5286  136.4359  152.9612 N   0  0  0  0  0  0  0  0  0  0  0  0
  147.8104  135.0290  153.2281 C   0  0  0  0  0  0  0  0  0  0  0  0
  147.0726  134.0779  152.2564 C   0  0  1  0  0  0  0  0  0  0  0  0
  147.1810  132.6094  152.7165 C   0  0  0  0  0  0  0  0  0  0  0  0
  146.5142  131.6512  151.7168 C   0  0  0  0  0  0  0  0  0  0  0  0
  145.0453  132.0297  151.4767 C   0  0  0  0  0  0  0  0  0  0  0  0
  144.9141  133.4918  151.0168 C   0  0  0  0  0  0  0  0  0  0  0  0
  145.5959  134.4729  151.9901 C   0  0  1  0  0  0  0  0  0  0  0  0
  144.8564  134.5224  153.1961 O   0  0  0  0  0  0  0  0  0  0  0  0
  146.8329  138.7869  152.3983 H   0  0  0  0  0  0  0  0  0  0  0  0
  146.8670  139.3612  154.0338 H   0  0  0  0  0  0  0  0  0  0  0  0
  149.0629  138.3469  151.3502 H   0  0  0  0  0  0  0  0  0  0  0  0
  151.8514  141.5879  151.9723 H   0  0  0  0  0  0  0  0  0  0  0  0
  150.5441  142.3169  153.8470 H   0  0  0  0  0  0  0  0  0  0  0  0
  147.1247  136.6577  152.0625 H   0  0  0  0  0  0  0  0  0  0  0  0
  148.8869  134.8585  153.1783 H   0  0  0  0  0  0  0  0  0  0  0  0
  147.5188  134.8164  154.2568 H   0  0  0  0  0  0  0  0  0  0  0  0
  147.5903  134.1392  151.2977 H   0  0  0  0  0  0  0  0  0  0  0  0
  148.2293  132.3340  152.8360 H   0  0  0  0  0  0  0  0  0  0  0  0
  146.7202  132.4918  153.6982 H   0  0  0  0  0  0  0  0  0  0  0  0
  147.0570  131.6737  150.7709 H   0  0  0  0  0  0  0  0  0  0  0  0
  146.5782  130.6269  152.0850 H   0  0  0  0  0  0  0  0  0  0  0  0
  144.6079  131.3657  150.7306 H   0  0  0  0  0  0  0  0  0  0  0  0
  144.4749  131.8788  152.3941 H   0  0  0  0  0  0  0  0  0  0  0  0
  145.3702  133.5949  150.0314 H   0  0  0  0  0  0  0  0  0  0  0  0
  143.8624  133.7524  150.8918 H   0  0  0  0  0  0  0  0  0  0  0  0
  145.5564  135.4696  151.5493 H   0  0  0  0  0  0  0  0  0  0  0  0
  143.9516  134.6960  152.9871 H   0  0  0  0  0  0  0  0  0  0  0  0
  1  2  2  0  0  0  0
  2  3  1  0  0  0  0
  2 14  1  0  0  0  0
  3  4  1  0  0  0  0
  3 23  1  0  0  0  0
  3 24  1  0  0  0  0
  4 12  1  0  0  0  0
  4  5  1  0  0  0  0
  5  6  2  0  0  0  0
  5 25  1  0  0  0  0
  6  7  1  0  0  0  0
  6 10  1  0  0  0  0
  7  8  2  0  0  0  0
  7  9  1  0  0  0  0
 10 11  2  0  0  0  0
 10 26  1  0  0  0  0
 11 12  1  0  0  0  0
 11 27  1  0  0  0  0
 12 13  2  0  0  0  0
 14 15  1  0  0  0  0
 14 28  1  0  0  0  0
 15 16  1  0  0  0  0
 15 29  1  0  0  0  0
 15 30  1  0  0  0  0
 16 21  1  0  0  0  0
 16 17  1  0  0  0  0
 16 31  1  0  0  0  0
 17 18  1  0  0  0  0
 17 32  1  0  0  0  0
 17 33  1  0  0  0  0
 18 19  1  0  0  0  0
 18 34  1  0  0  0  0
 18 35  1  0  0  0  0
 19 20  1  0  0  0  0
 19 36  1  0  0  0  0
 19 37  1  0  0  0  0
 20 21  1  0  0  0  0
 20 38  1  0  0  0  0
 20 39  1  0  0  0  0
 21 22  1  0  0  0  0
 21 40  1  0  0  0  0
 22 41  1  0  0  0  0
M  CHG  1   7   1
M  CHG  1   9  -1
M  END
> <s_m_source_file>
AV-unprocessed.smi

> <i_m_source_file_index>
771

> <i_lp_mmshare_version>
43012

> <i_f3d_flags>
0

> <s_epik_input>
Tz1jMVtjSF1bY0hdYyhbTitdKD1PKVtPLV0pW2NIXW4xW0NIMl1DKD1PKVtOSF1bQ0gyXVtDQEBIXTJbQ0gyXVtDSDJdW0NIMl1bQ0gyXVtDQEhdMltPSF0=

> <s_epik_cmdline>
J2VwaWtfcHl0aG9uJywgJy1waCcsICc3LjAnLCAnLXRuJywgJzgnLCAnLW1hJywgJzIwMCcsICctbWV0YWxfYmluZGluZycsICctaW1hZScsICc8aW5maWxlLm1hZT4nLCAnLW9tYWUnLCAnPG91dGZpbGUubWFlPic=

> <r_lp_tautomer_probability>
1

> <r_epik_Ionization_Penalty>
3.77175e-07

> <r_epik_Ionization_Penalty_Charging>
7.70067e-11

> <r_epik_Ionization_Penalty_Neutral>
3.77098e-07

> <r_epik_State_Penalty>
-0

> <r_epik_Charging_Adjusted_Penalty>
7.70067e-11

> <i_epik_Tot_Q>
0

> <i_epik_Tot_abs_Q>
2

> <r_epik_Metal_State_Penalty>
-0

> <b_epik_Metal_Only>
0

> <s_lp_Force_Field>
OPLS_2005

> <r_lp_Energy>
25.2575

> <b_lp_Chiralities_Consistent>
1

> <s_lp_Variant>
AV-unprocessed.smi:771-2

> <Gold.Version>
5.8.1

> <Gold.Id.Protein>
6NUR|6NUR_protein|mol2

> <Gold.PLP.Fitness>
47.1328

> <Gold.PLP.PLP>
-35.9521

> <Gold.PLP.part.hbond>
-2.9170

> <Gold.PLP.part.metal>
0.0000

> <Gold.PLP.part.buried>
-2.3692

> <Gold.PLP.part.nonpolar>
-30.6332

> <Gold.PLP.part.repulsive>
0.3253

> <Gold.PLP.ligand.clash>
0.0000

> <Gold.PLP.ligand.torsion>
0.3919

> <Gold.PLP.Chemscore.Hbond>
2.9600

> <Gold.PLP.Chemscore.CHOScore>
1.0000

> <Gold.PLP.Chemscore.Metal>
0.0000

> <Gold.Chemscore.Hbonds>
donor molecule, donor type, donor heavy atom, donor atom, acceptor molecule, acceptor atom, score
      L1  C     5    25       P1  7948  1.00

> <Gold.PLP.Chemscore.Internal.Correction>
0.0845

> <Gold.Rescore>
     Score         DG    S(hbond)    S(metal)    S(lipo)     H(rot)  DE(clash)    DE(int)     intcor
     16.39     -16.78       2.87        0.00      68.81       2.48       0.00       0.39       ----

> <Gold.Chemscore.Fitness>
16.3896

> <Gold.Chemscore.DG>
-16.7767

> <Gold.Chemscore.ZeroCoef>
-5.4800

> <Gold.Chemscore.Hbond>
2.8692

> <Gold.Chemscore.Metal>
0.0000

> <Gold.Chemscore.Lipo>
68.8083

> <Gold.Chemscore.Internal_Hbond>
0.0000

> <Gold.Chemscore.DEClash>
0.0021

> <Gold.Chemscore.DEInternal>
0.3850

> <Gold.Chemscore.Rot>
2.4753

> <Gold.Chemscore.Internal.Correction>
   9.000000E+99

> <Gold.Chemscore.Hbond.Weighted>
-9.5831

> <Gold.Chemscore.Metal.Weighted>
-0.0000

> <Gold.Chemscore.Lipo.Weighted>
-8.0506

> <Gold.Chemscore.Internal_Hbond.Weighted>
0.0000

> <Gold.Chemscore.DEClash.Weighted>
0.0021

> <Gold.Chemscore.DEInternal.Weighted>
0.3850

> <Gold.Chemscore.Rot.Weighted>
6.3369

> <Gold.Chemscore.Internal.Correction.Weighted>
   9.000000E+99

> <Gold.Protein.RotatedTorsions>
[ 6907 6896 6895 6894 ] final -123.39 input  -60.11 | X-H torsion
[ 7974 7965 7964 7962 ] final  -84.60 input  175.53 | X-H torsion
[ 8008 7997 7996 7995 ] final -133.14 input   59.86 | X-H torsion
[ 10167 10162 10161 10158 ] final  -24.82 input  -65.29 | X-H torsion
[ 10718 10713 10712 10709 ] final -149.49 input   66.30 | X-H torsion
[ 10763 10752 10751 10750 ] final  162.92 input  -60.55 | X-H torsion
[ 11005 11000 10999 10996 ] final  116.05 input  -57.11 | X-H torsion

> <Gold.Protein.ActiveResidues>
 VAL166  LYS551  ARG553  GLY616  TRP617  ASP618  TYR619  PRO620  LYS621  CYS622 
 ASP623  PHE694  ASN695  SER759  ASP760  ASP761  ALA762  ILE779  LEU786  VAL792 
 PHE793  MET794  SER795  GLU796  ALA797  LYS798  CYS799  TRP800  GLU811  SER814 

> <Gold.Protein.RotatedAtoms>
  150.8667  133.7565  159.2974 H   0  0  0  0  0  0  0  0  0  0  0  0  # atno 6907 bound_to 6896
  151.5190  135.1065  159.9883 H   0  0  0  0  0  0  0  0  0  0  0  0  # atno 6908 bound_to 6896
  152.4666  133.7891  159.6948 H   0  0  0  0  0  0  0  0  0  0  0  0  # atno 6909 bound_to 6896
  145.5045  140.9544  143.1741 H   0  0  0  0  0  0  0  0  0  0  0  0  # atno 7974 bound_to 7965
  155.3406  140.0472  157.3045 H   0  0  0  0  0  0  0  0  0  0  0  0  # atno 8008 bound_to 7997
  154.5279  140.2247  155.8821 H   0  0  0  0  0  0  0  0  0  0  0  0  # atno 8009 bound_to 7997
  156.1758  140.3085  155.9063 H   0  0  0  0  0  0  0  0  0  0  0  0  # atno 8010 bound_to 7997
  140.7287  143.4319  151.0788 H   0  0  0  0  0  0  0  0  0  0  0  0  # atno 10167 bound_to 10162
  156.4338  130.8088  151.2316 H   0  0  0  0  0  0  0  0  0  0  0  0  # atno 10718 bound_to 10713
  154.2857  135.2762  155.2677 H   0  0  0  0  0  0  0  0  0  0  0  0  # atno 10763 bound_to 10752
  154.5178  135.5764  153.6660 H   0  0  0  0  0  0  0  0  0  0  0  0  # atno 10764 bound_to 10752
  152.9922  135.6197  154.3019 H   0  0  0  0  0  0  0  0  0  0  0  0  # atno 10765 bound_to 10752
  139.9029  134.9593  156.7139 H   0  0  0  0  0  0  0  0  0  0  0  0  # atno 11005 bound_to 11000
  144.7761  139.6626  143.7174 LP  0  0  0  0  0  0  0  0  0  0  0  0  # atno 17320 bound_to 7965
  146.2205  139.5627  142.9621 LP  0  0  0  0  0  0  0  0  0  0  0  0  # atno 17321 bound_to 7965
  139.7977  143.8128  152.3159 LP  0  0  0  0  0  0  0  0  0  0  0  0  # atno 17342 bound_to 10162
  139.8134  144.7326  150.9668 LP  0  0  0  0  0  0  0  0  0  0  0  0  # atno 17343 bound_to 10162
  157.7508  131.0190  150.3648 LP  0  0  0  0  0  0  0  0  0  0  0  0  # atno 17370 bound_to 10713
  156.3991  130.3912  149.6973 LP  0  0  0  0  0  0  0  0  0  0  0  0  # atno 17371 bound_to 10713
  140.7054  133.9270  155.8050 LP  0  0  0  0  0  0  0  0  0  0  0  0  # atno 17394 bound_to 11000
  141.0340  134.0715  157.3980 LP  0  0  0  0  0  0  0  0  0  0  0  0  # atno 17395 bound_to 11000

$$$$
