AV-unprocessed.smi:2027|AV-procd|sdf|8218|dock9
  -GOLD-   2272010483D 1   1.00000     0.00000
 Structure written by MMmdl.
 51 53  0  0  0  0  0  0  0  0  3 V2000
  152.1339  143.4462  160.5430 C   0  0  0  0  0  0  0  0  0  0  0  0
  151.8618  142.6034  159.3084 C   0  0  0  0  0  0  0  0  0  0  0  0
  150.9509  143.0925  158.3452 C   0  0  0  0  0  0  0  0  0  0  0  0
  150.7210  142.2980  157.2284 C   0  0  0  0  0  0  0  0  0  0  0  0
  149.8935  142.4961  156.1212 N   0  3  0  0  0  0  0  0  0  0  0  0
  149.9989  141.4317  155.2786 C   0  0  0  0  0  0  0  0  0  0  0  0
  150.8840  140.5566  155.8299 N   0  0  0  0  0  0  0  0  0  0  0  0
  151.3414  139.2492  155.3359 C   0  0  0  0  0  0  0  0  0  0  0  0
  150.1878  138.3513  154.8482 C   0  0  1  0  0  0  0  0  0  0  0  0
  150.0465  138.4783  153.4468 O   0  0  0  0  0  0  0  0  0  0  0  0
  150.4441  136.8681  155.1828 C   0  0  0  0  0  0  0  0  0  0  0  0
  149.3455  135.9840  154.7151 N   0  3  1  0  0  0  0  0  0  0  0  0
  149.7459  134.5567  154.7177 C   0  0  0  0  0  0  0  0  0  0  0  0
  148.0646  136.2220  155.4302 C   0  0  0  0  0  0  0  0  0  0  0  0
  148.1892  135.9264  156.9003 C   0  0  0  0  0  0  0  0  0  0  0  0
  148.6464  134.7236  157.5110 C   0  0  0  0  0  0  0  0  0  0  0  0
  148.6373  134.7821  158.8321 N   0  0  0  0  0  0  0  0  0  0  0  0
  148.1704  136.0162  159.1114 N   0  0  0  0  0  0  0  0  0  0  0  0
  148.0217  136.4282  160.4908 C   0  0  0  0  0  0  0  0  0  0  0  0
  147.8889  136.7283  157.9657 C   0  0  0  0  0  0  0  0  0  0  0  0
  151.3609  141.0559  157.0487 C   0  0  0  0  0  0  0  0  0  0  0  0
  152.2646  140.5616  157.9870 C   0  0  0  0  0  0  0  0  0  0  0  0
  152.5113  141.3545  159.1306 C   0  0  0  0  0  0  0  0  0  0  0  0
  153.4914  140.8397  160.1711 C   0  0  0  0  0  0  0  0  0  0  0  0
  151.5249  144.3510  160.5510 H   0  0  0  0  0  0  0  0  0  0  0  0
  153.1810  143.7479  160.5761 H   0  0  0  0  0  0  0  0  0  0  0  0
  151.9057  142.8852  161.4496 H   0  0  0  0  0  0  0  0  0  0  0  0
  150.4538  144.0431  158.4734 H   0  0  0  0  0  0  0  0  0  0  0  0
  149.4712  141.3041  154.3442 H   0  0  0  0  0  0  0  0  0  0  0  0
  152.0867  139.3977  154.5544 H   0  0  0  0  0  0  0  0  0  0  0  0
  151.8620  138.7623  156.1614 H   0  0  0  0  0  0  0  0  0  0  0  0
  149.2632  138.6950  155.3113 H   0  0  0  0  0  0  0  0  0  0  0  0
  149.8611  137.6247  153.0849 H   0  0  0  0  0  0  0  0  0  0  0  0
  151.3878  136.5704  154.7218 H   0  0  0  0  0  0  0  0  0  0  0  0
  150.5798  136.7316  156.2570 H   0  0  0  0  0  0  0  0  0  0  0  0
  149.9486  134.2100  155.7319 H   0  0  0  0  0  0  0  0  0  0  0  0
  150.6457  134.4074  154.1199 H   0  0  0  0  0  0  0  0  0  0  0  0
  148.9691  133.9242  154.2883 H   0  0  0  0  0  0  0  0  0  0  0  0
  147.7432  137.2503  155.2576 H   0  0  0  0  0  0  0  0  0  0  0  0
  147.2805  135.5977  155.0033 H   0  0  0  0  0  0  0  0  0  0  0  0
  148.9860  133.8158  157.0343 H   0  0  0  0  0  0  0  0  0  0  0  0
  147.7734  137.4888  160.5397 H   0  0  0  0  0  0  0  0  0  0  0  0
  148.9528  136.2583  161.0324 H   0  0  0  0  0  0  0  0  0  0  0  0
  147.2229  135.8545  160.9615 H   0  0  0  0  0  0  0  0  0  0  0  0
  147.5041  137.7369  158.0027 H   0  0  0  0  0  0  0  0  0  0  0  0
  152.7631  139.6128  157.8542 H   0  0  0  0  0  0  0  0  0  0  0  0
  153.9196  139.8809  159.8769 H   0  0  0  0  0  0  0  0  0  0  0  0
  152.9925  140.7009  161.1306 H   0  0  0  0  0  0  0  0  0  0  0  0
  154.3130  141.5437  160.3057 H   0  0  0  0  0  0  0  0  0  0  0  0
  149.1912  136.2291  153.7469 H   0  0  0  0  0  0  0  0  0  0  0  0
  149.2960  143.2958  155.9537 H   0  0  0  0  0  0  0  0  0  0  0  0
  1  2  1  0  0  0  0
  1 25  1  0  0  0  0
  1 26  1  0  0  0  0
  1 27  1  0  0  0  0
  2 23  1  0  0  0  0
  2  3  2  0  0  0  0
  3  4  1  0  0  0  0
  3 28  1  0  0  0  0
  4 21  2  0  0  0  0
  4  5  1  0  0  0  0
  5  6  2  0  0  0  0
  5 51  1  0  0  0  0
  6  7  1  0  0  0  0
  6 29  1  0  0  0  0
  7  8  1  0  0  0  0
  7 21  1  0  0  0  0
  8  9  1  0  0  0  0
  8 30  1  0  0  0  0
  8 31  1  0  0  0  0
  9 10  1  0  0  0  0
  9 11  1  0  0  0  0
  9 32  1  0  0  0  0
 10 33  1  0  0  0  0
 11 12  1  0  0  0  0
 11 34  1  0  0  0  0
 11 35  1  0  0  0  0
 12 13  1  0  0  0  0
 12 14  1  0  0  0  0
 12 50  1  0  0  0  0
 13 36  1  0  0  0  0
 13 37  1  0  0  0  0
 13 38  1  0  0  0  0
 14 15  1  0  0  0  0
 14 39  1  0  0  0  0
 14 40  1  0  0  0  0
 15 20  2  0  0  0  0
 15 16  1  0  0  0  0
 16 17  2  0  0  0  0
 16 41  1  0  0  0  0
 17 18  1  0  0  0  0
 18 19  1  0  0  0  0
 18 20  1  0  0  0  0
 19 42  1  0  0  0  0
 19 43  1  0  0  0  0
 19 44  1  0  0  0  0
 20 45  1  0  0  0  0
 21 22  1  0  0  0  0
 22 23  2  0  0  0  0
 22 46  1  0  0  0  0
 23 24  1  0  0  0  0
 24 47  1  0  0  0  0
 24 48  1  0  0  0  0
 24 49  1  0  0  0  0
M  CHG  1   5   1
M  CHG  1  12   1
M  END
> <s_m_source_file>
AV-unprocessed.smi

> <i_m_source_file_index>
2027

> <i_lp_mmshare_version>
43012

> <i_f3d_flags>
0

> <s_epik_input>
W0NIM11jKFtjSF0xKWMoW0NIM10pW2NIXWMoYzEyKW4oW2NIXW4yKVtDSDJdW0NASF0oW09IXSlbQ0gyXU4oW0NIM10pW0NIMl1jM1tjSF1ubihbQ0gzXSlbY0hdMw==

> <s_epik_cmdline>
J2VwaWtfcHl0aG9uJywgJy1waCcsICc3LjAnLCAnLXRuJywgJzgnLCAnLW1hJywgJzIwMCcsICctbWV0YWxfYmluZGluZycsICctaW1hZScsICc8aW5maWxlLm1hZT4nLCAnLW9tYWUnLCAnPG91dGZpbGUubWFlPic=

> <r_lp_tautomer_probability>
1

> <r_epik_Ionization_Penalty>
1.77469

> <r_epik_Ionization_Penalty_Charging>
1.77463

> <r_epik_Ionization_Penalty_Neutral>
6.41153e-05

> <r_epik_State_Penalty>
1.85225

> <r_epik_Charging_Adjusted_Penalty>
3.62688

> <i_epik_Tot_Q>
2

> <i_epik_Tot_abs_Q>
2

> <r_epik_Metal_State_Penalty>
1.92669

> <b_epik_Metal_Only>
0

> <s_lp_Force_Field>
OPLS_2005

> <r_lp_Energy>
18.885

> <b_lp_Chiralities_Consistent>
1

> <s_lp_Variant>
AV-unprocessed.smi:2027-10

> <Gold.Version>
5.8.1

> <Gold.Id.Protein>
6NUR|6NUR_protein|mol2

> <Gold.PLP.Fitness>
61.4583

> <Gold.PLP.PLP>
-44.9090

> <Gold.PLP.part.hbond>
-4.9594

> <Gold.PLP.part.metal>
0.0000

> <Gold.PLP.part.buried>
-5.7105

> <Gold.PLP.part.nonpolar>
-35.0514

> <Gold.PLP.part.repulsive>
0.1303

> <Gold.PLP.ligand.clash>
0.0000

> <Gold.PLP.ligand.torsion>
0.7583

> <Gold.PLP.Chemscore.Hbond>
6.0000

> <Gold.PLP.Chemscore.CHOScore>
0.0000

> <Gold.PLP.Chemscore.Metal>
0.0000

> <Gold.Chemscore.Hbonds>
donor molecule, donor type, donor heavy atom, donor atom, acceptor molecule, acceptor atom, score
      L1  H     5    51       P1  8028  1.92
      L1  H    10    33       P1  7948  1.00
      L1  H    12    50       P1  7948  2.00
      P1  H  6896  6907       L1    17  0.75

> <Gold.PLP.Chemscore.Internal.Correction>
0.0659

> <Gold.Rescore>
     Score         DG    S(hbond)    S(metal)    S(lipo)     H(rot)  DE(clash)    DE(int)     intcor
     22.44     -23.89       3.74        0.00     107.02       2.58       0.02       1.42       ----

> <Gold.Chemscore.Fitness>
22.4411

> <Gold.Chemscore.DG>
-23.8873

> <Gold.Chemscore.ZeroCoef>
-5.4800

> <Gold.Chemscore.Hbond>
3.7426

> <Gold.Chemscore.Metal>
0.0000

> <Gold.Chemscore.Lipo>
107.0159

> <Gold.Chemscore.Internal_Hbond>
0.0000

> <Gold.Chemscore.DEClash>
0.0224

> <Gold.Chemscore.DEInternal>
1.4238

> <Gold.Chemscore.Rot>
2.5836

> <Gold.Chemscore.Internal.Correction>
   9.000000E+99

> <Gold.Chemscore.Hbonds>
donor molecule, donor type, donor heavy atom, donor atom, acceptor molecule, acceptor atom, score
      L1  H     5    51       P1  8028  0.90
      L1  H    10    33       P1  7948  0.42
      L1  H    12    50       P1  7948  0.93
      P1  H  6896  6907       L1    17  0.40

> <Gold.Chemscore.Hbond.Weighted>
-12.5003

> <Gold.Chemscore.Metal.Weighted>
-0.0000

> <Gold.Chemscore.Lipo.Weighted>
-12.5209

> <Gold.Chemscore.Internal_Hbond.Weighted>
0.0000

> <Gold.Chemscore.DEClash.Weighted>
0.0224

> <Gold.Chemscore.DEInternal.Weighted>
1.4238

> <Gold.Chemscore.Rot.Weighted>
6.6139

> <Gold.Chemscore.Internal.Correction.Weighted>
   9.000000E+99

> <Gold.Protein.RotatedTorsions>
[ 6907 6896 6895 6894 ] final  -87.62 input  -60.11 | X-H torsion
[ 7974 7965 7964 7962 ] final  137.42 input  175.53 | X-H torsion
[ 8008 7997 7996 7995 ] final  115.47 input   59.86 | X-H torsion
[ 10167 10162 10161 10158 ] final  150.54 input  -65.29 | X-H torsion
[ 10718 10713 10712 10709 ] final  125.64 input   66.30 | X-H torsion
[ 10763 10752 10751 10750 ] final -132.07 input  -60.55 | X-H torsion
[ 11005 11000 10999 10996 ] final  -73.41 input  -57.11 | X-H torsion

> <Gold.Protein.ActiveResidues>
 VAL166  LYS551  ARG553  GLY616  TRP617  ASP618  TYR619  PRO620  LYS621  CYS622 
 ASP623  PHE694  ASN695  SER759  ASP760  ASP761  ALA762  ILE779  LEU786  VAL792 
 PHE793  MET794  SER795  GLU796  ALA797  LYS798  CYS799  TRP800  GLU811  SER814 

> <Gold.Protein.RotatedAtoms>
  150.6866  134.2869  159.4650 H   0  0  0  0  0  0  0  0  0  0  0  0  # atno 6907 bound_to 6896
  152.0777  134.9489  160.0583 H   0  0  0  0  0  0  0  0  0  0  0  0  # atno 6908 bound_to 6896
  152.0854  133.4139  159.4557 H   0  0  0  0  0  0  0  0  0  0  0  0  # atno 6909 bound_to 6896
  144.9470  139.4863  143.5544 H   0  0  0  0  0  0  0  0  0  0  0  0  # atno 7974 bound_to 7965
  156.2383  140.2938  156.0373 H   0  0  0  0  0  0  0  0  0  0  0  0  # atno 8008 bound_to 7997
  155.2026  140.0410  157.2937 H   0  0  0  0  0  0  0  0  0  0  0  0  # atno 8009 bound_to 7997
  154.6120  140.2454  155.7664 H   0  0  0  0  0  0  0  0  0  0  0  0  # atno 8010 bound_to 7997
  139.4849  144.5513  151.7395 H   0  0  0  0  0  0  0  0  0  0  0  0  # atno 10167 bound_to 10162
  157.5486  131.1095  150.8739 H   0  0  0  0  0  0  0  0  0  0  0  0  # atno 10718 bound_to 10713
  154.8746  135.3810  154.4349 H   0  0  0  0  0  0  0  0  0  0  0  0  # atno 10763 bound_to 10752
  153.5040  135.7030  153.5822 H   0  0  0  0  0  0  0  0  0  0  0  0  # atno 10764 bound_to 10752
  153.4141  135.3917  155.2035 H   0  0  0  0  0  0  0  0  0  0  0  0  # atno 10765 bound_to 10752
  141.1622  133.6877  156.7208 H   0  0  0  0  0  0  0  0  0  0  0  0  # atno 11005 bound_to 11000
  146.3307  139.8528  142.8870 LP  0  0  0  0  0  0  0  0  0  0  0  0  # atno 17320 bound_to 7965
  145.2903  141.0165  143.3667 LP  0  0  0  0  0  0  0  0  0  0  0  0  # atno 17321 bound_to 7965
  140.5068  144.1086  150.5984 LP  0  0  0  0  0  0  0  0  0  0  0  0  # atno 17342 bound_to 10162
  140.3998  143.2710  151.9961 LP  0  0  0  0  0  0  0  0  0  0  0  0  # atno 17343 bound_to 10162
  156.9271  130.5336  149.5279 LP  0  0  0  0  0  0  0  0  0  0  0  0  # atno 17370 bound_to 10713
  156.0557  130.5619  150.9086 LP  0  0  0  0  0  0  0  0  0  0  0  0  # atno 17371 bound_to 10713
  140.2817  134.8311  157.3939 LP  0  0  0  0  0  0  0  0  0  0  0  0  # atno 17394 bound_to 11000
  140.1427  134.4951  155.8019 LP  0  0  0  0  0  0  0  0  0  0  0  0  # atno 17395 bound_to 11000

$$$$
