AV-unprocessed.smi:2183|AV-procd|sdf|8868|dock1
  -GOLD-   2272012 63D 1   1.00000     0.00000
 Structure written by MMmdl.
 41 43  0  0  0  0  0  0  0  0  2 V2000
  150.7949  139.9398  154.5926 O   0  0  0  0  0  0  0  0  0  0  0  0
  149.9302  140.7601  155.3503 C   0  0  0  0  0  0  0  0  0  0  0  0
  150.6263  141.4907  156.4546 C   0  0  0  0  0  0  0  0  0  0  0  0
  150.6093  142.8377  156.6700 N   0  3  0  0  0  0  0  0  0  0  0  0
  151.3784  143.1489  157.7919 C   0  0  0  0  0  0  0  0  0  0  0  0
  151.6579  144.3706  158.3964 C   0  0  0  0  0  0  0  0  0  0  0  0
  152.4852  144.3366  159.5385 C   0  0  0  0  0  0  0  0  0  0  0  0
  153.0010  143.1220  160.0359 C   0  0  0  0  0  0  0  0  0  0  0  0
  152.7115  141.8899  159.4133 C   0  0  0  0  0  0  0  0  0  0  0  0
  151.8911  141.9326  158.2865 C   0  0  0  0  0  0  0  0  0  0  0  0
  151.3995  140.9383  157.4338 N   0  0  0  0  0  0  0  0  0  0  0  0
  151.7605  139.5346  157.6871 C   0  0  0  0  0  0  0  0  0  0  0  0
  151.5196  139.1038  159.1484 C   0  0  1  0  0  0  0  0  0  0  0  0
  150.2661  138.4547  159.2326 O   0  0  0  0  0  0  0  0  0  0  0  0
  152.6075  138.1409  159.6487 C   0  0  0  0  0  0  0  0  0  0  0  0
  153.7085  138.9017  160.1284 O   0  0  0  0  0  0  0  0  0  0  0  0
  154.1474  138.6774  161.4158 C   0  0  0  0  0  0  0  0  0  0  0  0
  154.9954  139.6520  161.9815 C   0  0  0  0  0  0  0  0  0  0  0  0
  155.4901  139.5054  163.2918 C   0  0  0  0  0  0  0  0  0  0  0  0
  155.1397  138.3752  164.0535 C   0  0  0  0  0  0  0  0  0  0  0  0
  155.7423  138.1937  165.6601 Cl  0  0  0  0  0  0  0  0  0  0  0  0
  154.2959  137.3935  163.5010 C   0  0  0  0  0  0  0  0  0  0  0  0
  153.8014  137.5407  162.1902 C   0  0  0  0  0  0  0  0  0  0  0  0
  150.6939  139.0467  154.8857 H   0  0  0  0  0  0  0  0  0  0  0  0
  149.4573  141.4807  154.6826 H   0  0  0  0  0  0  0  0  0  0  0  0
  149.1382  140.1433  155.7755 H   0  0  0  0  0  0  0  0  0  0  0  0
  151.2647  145.3023  158.0169 H   0  0  0  0  0  0  0  0  0  0  0  0
  152.7292  145.2606  160.0427 H   0  0  0  0  0  0  0  0  0  0  0  0
  153.6313  143.1355  160.9132 H   0  0  0  0  0  0  0  0  0  0  0  0
  153.1111  140.9648  159.8020 H   0  0  0  0  0  0  0  0  0  0  0  0
  151.1760  138.9126  157.0079 H   0  0  0  0  0  0  0  0  0  0  0  0
  152.8051  139.3945  157.4062 H   0  0  0  0  0  0  0  0  0  0  0  0
  151.4988  139.9889  159.7851 H   0  0  0  0  0  0  0  0  0  0  0  0
  149.8449  138.5062  158.3885 H   0  0  0  0  0  0  0  0  0  0  0  0
  152.2110  137.4726  160.4155 H   0  0  0  0  0  0  0  0  0  0  0  0
  152.9537  137.5257  158.8161 H   0  0  0  0  0  0  0  0  0  0  0  0
  155.2686  140.5236  161.4049 H   0  0  0  0  0  0  0  0  0  0  0  0
  156.1376  140.2613  163.7112 H   0  0  0  0  0  0  0  0  0  0  0  0
  154.0246  136.5248  164.0825 H   0  0  0  0  0  0  0  0  0  0  0  0
  153.1571  136.7670  161.8021 H   0  0  0  0  0  0  0  0  0  0  0  0
  150.1033  143.4914  156.0861 H   0  0  0  0  0  0  0  0  0  0  0  0
  1  2  1  0  0  0  0
  1 24  1  0  0  0  0
  2  3  1  0  0  0  0
  2 25  1  0  0  0  0
  2 26  1  0  0  0  0
  3 11  1  0  0  0  0
  3  4  2  0  0  0  0
  4  5  1  0  0  0  0
  4 41  1  0  0  0  0
  5 10  2  0  0  0  0
  5  6  1  0  0  0  0
  6  7  2  0  0  0  0
  6 27  1  0  0  0  0
  7  8  1  0  0  0  0
  7 28  1  0  0  0  0
  8  9  2  0  0  0  0
  8 29  1  0  0  0  0
  9 10  1  0  0  0  0
  9 30  1  0  0  0  0
 10 11  1  0  0  0  0
 11 12  1  0  0  0  0
 12 13  1  0  0  0  0
 12 31  1  0  0  0  0
 12 32  1  0  0  0  0
 13 14  1  0  0  0  0
 13 15  1  0  0  0  0
 13 33  1  0  0  0  0
 14 34  1  0  0  0  0
 15 16  1  0  0  0  0
 15 35  1  0  0  0  0
 15 36  1  0  0  0  0
 16 17  1  0  0  0  0
 17 23  1  0  0  0  0
 17 18  2  0  0  0  0
 18 19  1  0  0  0  0
 18 37  1  0  0  0  0
 19 20  2  0  0  0  0
 19 38  1  0  0  0  0
 20 21  1  0  0  0  0
 20 22  1  0  0  0  0
 22 23  2  0  0  0  0
 22 39  1  0  0  0  0
 23 40  1  0  0  0  0
M  CHG  1   4   1
M  END
> <s_m_source_file>
AV-unprocessed.smi

> <i_m_source_file_index>
2183

> <i_lp_mmshare_version>
43012

> <i_f3d_flags>
0

> <s_epik_input>
W2NIXTFbY0hdW2NIXVtjSF1jKGMxMiluKGMobjIpW0NIMl1bT0hdKVtDSDJdW0NASF0oW09IXSlbQ0gyXU9jM1tjSF1bY0hdYyhDbClbY0hdW2NIXTM=

> <s_epik_cmdline>
J2VwaWtfcHl0aG9uJywgJy1waCcsICc3LjAnLCAnLXRuJywgJzgnLCAnLW1hJywgJzIwMCcsICctbWV0YWxfYmluZGluZycsICctaW1hZScsICc8aW5maWxlLm1hZT4nLCAnLW9tYWUnLCAnPG91dGZpbGUubWFlPic=

> <r_lp_tautomer_probability>
1

> <r_epik_Ionization_Penalty>
1.40052

> <r_epik_Ionization_Penalty_Charging>
1.39966

> <r_epik_Ionization_Penalty_Neutral>
0.000858184

> <r_epik_State_Penalty>
1.4817

> <r_epik_Charging_Adjusted_Penalty>
2.88136

> <i_epik_Tot_Q>
1

> <i_epik_Tot_abs_Q>
1

> <r_epik_Metal_State_Penalty>
5.5238

> <b_epik_Metal_Only>
0

> <s_lp_Force_Field>
OPLS_2005

> <r_lp_Energy>
18.7235

> <b_lp_Chiralities_Consistent>
1

> <s_lp_Variant>
AV-unprocessed.smi:2183-4

> <Gold.Version>
5.8.1

> <Gold.Id.Protein>
6NUR|6NUR_protein|mol2

> <Gold.PLP.Fitness>
56.4295

> <Gold.PLP.PLP>
-50.1406

> <Gold.PLP.part.hbond>
-2.8421

> <Gold.PLP.part.metal>
0.0000

> <Gold.PLP.part.buried>
-6.7850

> <Gold.PLP.part.nonpolar>
-41.2738

> <Gold.PLP.part.repulsive>
0.0582

> <Gold.PLP.ligand.clash>
0.0000

> <Gold.PLP.ligand.torsion>
1.4866

> <Gold.PLP.Chemscore.Hbond>
3.0000

> <Gold.PLP.Chemscore.CHOScore>
0.0000

> <Gold.PLP.Chemscore.Metal>
0.0000

> <Gold.Chemscore.Hbonds>
donor molecule, donor type, donor heavy atom, donor atom, acceptor molecule, acceptor atom, score
      L1  H     4    41       P1  8028  2.00
      P1  H  7989  7998       L1     1  1.00

> <Gold.PLP.Chemscore.Internal.Correction>
0.2621

> <Gold.Rescore>
     Score         DG    S(hbond)    S(metal)    S(lipo)     H(rot)  DE(clash)    DE(int)     intcor
     18.86     -20.30       1.99        0.00     138.46       3.13       0.15       1.29       ----

> <Gold.Chemscore.Fitness>
18.8593

> <Gold.Chemscore.DG>
-20.3001

> <Gold.Chemscore.ZeroCoef>
-5.4800

> <Gold.Chemscore.Hbond>
1.9863

> <Gold.Chemscore.Metal>
0.0000

> <Gold.Chemscore.Lipo>
138.4601

> <Gold.Chemscore.Internal_Hbond>
0.0000

> <Gold.Chemscore.DEClash>
0.1483

> <Gold.Chemscore.DEInternal>
1.2926

> <Gold.Chemscore.Rot>
3.1305

> <Gold.Chemscore.Internal.Correction>
   9.000000E+99

> <Gold.Chemscore.Hbonds>
donor molecule, donor type, donor heavy atom, donor atom, acceptor molecule, acceptor atom, score
      L1  H     4    41       P1  8028  0.99
      P1  H  7989  7998       L1     1  0.74

> <Gold.Chemscore.Hbond.Weighted>
-6.6344

> <Gold.Chemscore.Metal.Weighted>
-0.0000

> <Gold.Chemscore.Lipo.Weighted>
-16.1998

> <Gold.Chemscore.Internal_Hbond.Weighted>
0.0000

> <Gold.Chemscore.DEClash.Weighted>
0.1483

> <Gold.Chemscore.DEInternal.Weighted>
1.2926

> <Gold.Chemscore.Rot.Weighted>
8.0141

> <Gold.Chemscore.Internal.Correction.Weighted>
   9.000000E+99

> <Gold.Protein.RotatedTorsions>
[ 6907 6896 6895 6894 ] final  156.15 input  -60.11 | X-H torsion
[ 7974 7965 7964 7962 ] final -145.86 input  175.53 | X-H torsion
[ 8008 7997 7996 7995 ] final   88.05 input   59.86 | X-H torsion
[ 10167 10162 10161 10158 ] final  -35.08 input  -65.29 | X-H torsion
[ 10718 10713 10712 10709 ] final -135.79 input   66.30 | X-H torsion
[ 10763 10752 10751 10750 ] final  110.88 input  -60.55 | X-H torsion
[ 11005 11000 10999 10996 ] final   72.48 input  -57.11 | X-H torsion

> <Gold.Protein.ActiveResidues>
 VAL166  LYS551  ARG553  GLY616  TRP617  ASP618  TYR619  PRO620  LYS621  CYS622 
 ASP623  PHE694  ASN695  SER759  ASP760  ASP761  ALA762  ILE779  LEU786  VAL792 
 PHE793  MET794  SER795  GLU796  ALA797  LYS798  CYS799  TRP800  GLU811  SER814 

> <Gold.Protein.RotatedAtoms>
  152.0339  133.3949  159.4308 H   0  0  0  0  0  0  0  0  0  0  0  0  # atno 6907 bound_to 6896
  150.6880  134.3490  159.4910 H   0  0  0  0  0  0  0  0  0  0  0  0  # atno 6908 bound_to 6896
  152.1280  134.9156  160.0611 H   0  0  0  0  0  0  0  0  0  0  0  0  # atno 6909 bound_to 6896
  144.8198  140.5530  143.5586 H   0  0  0  0  0  0  0  0  0  0  0  0  # atno 7974 bound_to 7965
  155.9829  140.3375  155.6680 H   0  0  0  0  0  0  0  0  0  0  0  0  # atno 8008 bound_to 7997
  155.6524  140.0707  157.2600 H   0  0  0  0  0  0  0  0  0  0  0  0  # atno 8009 bound_to 7997
  154.4197  140.1723  156.1676 H   0  0  0  0  0  0  0  0  0  0  0  0  # atno 8010 bound_to 7997
  140.7172  143.3502  151.2171 H   0  0  0  0  0  0  0  0  0  0  0  0  # atno 10167 bound_to 10162
  156.2700  130.7260  151.1223 H   0  0  0  0  0  0  0  0  0  0  0  0  # atno 10718 bound_to 10713
  153.4553  135.3734  155.2307 H   0  0  0  0  0  0  0  0  0  0  0  0  # atno 10763 bound_to 10752
  154.8757  135.3895  154.3990 H   0  0  0  0  0  0  0  0  0  0  0  0  # atno 10764 bound_to 10752
  153.4555  135.7086  153.6146 H   0  0  0  0  0  0  0  0  0  0  0  0  # atno 10765 bound_to 10752
  139.9489  134.7263  156.0911 H   0  0  0  0  0  0  0  0  0  0  0  0  # atno 11005 bound_to 11000
  145.5130  139.1479  143.3594 LP  0  0  0  0  0  0  0  0  0  0  0  0  # atno 17320 bound_to 7965
  146.2503  140.5271  142.8896 LP  0  0  0  0  0  0  0  0  0  0  0  0  # atno 17321 bound_to 7965
  139.7031  143.9499  152.2915 LP  0  0  0  0  0  0  0  0  0  0  0  0  # atno 17342 bound_to 10162
  139.9199  144.6806  150.8472 LP  0  0  0  0  0  0  0  0  0  0  0  0  # atno 17343 bound_to 10162
  157.7280  131.0635  150.5838 LP  0  0  0  0  0  0  0  0  0  0  0  0  # atno 17370 bound_to 10713
  156.5934  130.4335  149.5927 LP  0  0  0  0  0  0  0  0  0  0  0  0  # atno 17371 bound_to 10713
  141.1147  133.6632  156.3064 LP  0  0  0  0  0  0  0  0  0  0  0  0  # atno 17394 bound_to 11000
  140.5767  134.5786  157.5470 LP  0  0  0  0  0  0  0  0  0  0  0  0  # atno 17395 bound_to 11000

$$$$
