AV-unprocessed.smi:2032|AV-procd|sdf|8233|dock2
  -GOLD-   2272010503D 1   1.00000     0.00000
 Structure written by MMmdl.
 42 43  0  0  0  0  0  0  0  0  1 V2000
  151.6705  138.1673  154.2304 C   0  0  0  0  0  0  0  0  0  0  0  0
  150.5693  138.9826  154.9161 C   0  0  2  0  0  0  0  0  0  0  0  0
  149.1628  138.4655  154.5637 C   0  0  0  0  0  0  0  0  0  0  0  0
  148.0994  139.2867  155.1452 N   0  0  0  0  0  0  0  0  0  0  0  0
  146.7473  138.7730  154.8324 C   0  0  1  0  0  0  0  0  0  0  0  0
  145.6176  139.5035  155.5932 C   0  0  0  0  0  0  0  0  0  0  0  0
  146.4048  138.7784  153.3189 C   0  0  0  0  0  0  0  0  0  0  0  0
  146.6030  137.4712  152.6949 N   0  0  0  0  0  0  0  0  0  0  0  0
  145.6307  136.6182  152.3422 C   0  0  0  0  0  0  0  0  0  0  0  0
  144.4325  136.8405  152.5197 O   0  0  0  0  0  0  0  0  0  0  0  0
  146.1393  135.5101  151.7755 N   0  0  0  0  0  0  0  0  0  0  0  0
  145.4400  134.3830  151.2699 C   0  0  0  0  0  0  0  0  0  0  0  0
  144.1082  134.3054  151.1658 N   0  0  0  0  0  0  0  0  0  0  0  0
  143.6941  133.0810  150.6357 C   0  0  0  0  0  0  0  0  0  0  0  0
  144.7311  132.2318  150.3397 C   0  0  0  0  0  0  0  0  0  0  0  0
  146.2788  132.9416  150.7148 S   0  0  0  0  0  0  0  0  0  0  0  0
  148.2926  140.6677  154.6935 C   0  0  0  0  0  0  0  0  0  0  0  0
  149.6981  141.2202  155.0013 C   0  0  1  0  0  0  0  0  0  0  0  0
  149.9126  141.5412  156.4904 C   0  0  0  0  0  0  0  0  0  0  0  0
  150.6987  140.3377  154.4970 O   0  0  0  0  0  0  0  0  0  0  0  0
  151.6259  137.1194  154.5278 H   0  0  0  0  0  0  0  0  0  0  0  0
  152.6578  138.5458  154.4961 H   0  0  0  0  0  0  0  0  0  0  0  0
  151.5771  138.2121  153.1449 H   0  0  0  0  0  0  0  0  0  0  0  0
  150.7199  138.9201  155.9941 H   0  0  0  0  0  0  0  0  0  0  0  0
  149.0464  138.4254  153.4795 H   0  0  0  0  0  0  0  0  0  0  0  0
  149.0943  137.4410  154.9258 H   0  0  0  0  0  0  0  0  0  0  0  0
  146.7037  137.7302  155.1504 H   0  0  0  0  0  0  0  0  0  0  0  0
  144.6349  139.1879  155.2413 H   0  0  0  0  0  0  0  0  0  0  0  0
  145.6812  140.5844  155.4647 H   0  0  0  0  0  0  0  0  0  0  0  0
  145.6383  139.2901  156.6613 H   0  0  0  0  0  0  0  0  0  0  0  0
  145.3694  139.0759  153.1581 H   0  0  0  0  0  0  0  0  0  0  0  0
  146.9870  139.5445  152.8039 H   0  0  0  0  0  0  0  0  0  0  0  0
  147.5577  137.2063  152.5018 H   0  0  0  0  0  0  0  0  0  0  0  0
  147.1446  135.4670  151.6973 H   0  0  0  0  0  0  0  0  0  0  0  0
  142.6383  132.8972  150.5023 H   0  0  0  0  0  0  0  0  0  0  0  0
  144.6785  131.2362  149.9248 H   0  0  0  0  0  0  0  0  0  0  0  0
  148.1194  140.7223  153.6176 H   0  0  0  0  0  0  0  0  0  0  0  0
  147.5666  141.3331  155.1575 H   0  0  0  0  0  0  0  0  0  0  0  0
  149.8157  142.1567  154.4553 H   0  0  0  0  0  0  0  0  0  0  0  0
  149.2114  142.3052  156.8263 H   0  0  0  0  0  0  0  0  0  0  0  0
  150.9204  141.9180  156.6654 H   0  0  0  0  0  0  0  0  0  0  0  0
  149.7672  140.6669  157.1244 H   0  0  0  0  0  0  0  0  0  0  0  0
  1  2  1  0  0  0  0
  1 21  1  0  0  0  0
  1 22  1  0  0  0  0
  1 23  1  0  0  0  0
  2 20  1  0  0  0  0
  2  3  1  0  0  0  0
  2 24  1  0  0  0  0
  3  4  1  0  0  0  0
  3 25  1  0  0  0  0
  3 26  1  0  0  0  0
  4  5  1  0  0  0  0
  4 17  1  0  0  0  0
  5  6  1  0  0  0  0
  5  7  1  0  0  0  0
  5 27  1  0  0  0  0
  6 28  1  0  0  0  0
  6 29  1  0  0  0  0
  6 30  1  0  0  0  0
  7  8  1  0  0  0  0
  7 31  1  0  0  0  0
  7 32  1  0  0  0  0
  8  9  1  0  0  0  0
  8 33  1  0  0  0  0
  9 10  2  0  0  0  0
  9 11  1  0  0  0  0
 11 12  1  0  0  0  0
 11 34  1  0  0  0  0
 12 16  1  0  0  0  0
 12 13  2  0  0  0  0
 13 14  1  0  0  0  0
 14 15  2  0  0  0  0
 14 35  1  0  0  0  0
 15 16  1  0  0  0  0
 15 36  1  0  0  0  0
 17 18  1  0  0  0  0
 17 37  1  0  0  0  0
 17 38  1  0  0  0  0
 18 19  1  0  0  0  0
 18 20  1  0  0  0  0
 18 39  1  0  0  0  0
 19 40  1  0  0  0  0
 19 41  1  0  0  0  0
 19 42  1  0  0  0  0
M  END
> <s_m_source_file>
AV-unprocessed.smi

> <i_m_source_file_index>
2032

> <i_lp_mmshare_version>
43012

> <i_f3d_flags>
0

> <s_epik_input>
W0NIM11bQ0BASF0xW0NIMl1OKFtDSDJdW0NASF0oTzEpW0NIM10pW0NASF0oW0NIM10pW0NIMl1bTkhdQyg9TylbTkhdYzJuW2NIXVtjSF1zMg==

> <s_epik_cmdline>
J2VwaWtfcHl0aG9uJywgJy1waCcsICc3LjAnLCAnLXRuJywgJzgnLCAnLW1hJywgJzIwMCcsICctbWV0YWxfYmluZGluZycsICctaW1hZScsICc8aW5maWxlLm1hZT4nLCAnLW9tYWUnLCAnPG91dGZpbGUubWFlPic=

> <r_lp_tautomer_probability>
0.999

> <r_epik_Ionization_Penalty>
0.219202

> <r_epik_Ionization_Penalty_Charging>
0

> <r_epik_Ionization_Penalty_Neutral>
0.219202

> <r_epik_State_Penalty>
0.209349

> <r_epik_Charging_Adjusted_Penalty>
0.209349

> <i_epik_Tot_Q>
0

> <i_epik_Tot_abs_Q>
0

> <r_epik_Metal_State_Penalty>
0.247737

> <b_epik_Metal_Only>
0

> <s_lp_Force_Field>
OPLS_2005

> <r_lp_Energy>
32.247

> <b_lp_Chiralities_Consistent>
1

> <s_lp_Variant>
AV-unprocessed.smi:2032-3

> <Gold.Version>
5.8.1

> <Gold.Id.Protein>
6NUR|6NUR_protein|mol2

> <Gold.PLP.Fitness>
42.9429

> <Gold.PLP.PLP>
-32.3386

> <Gold.PLP.part.hbond>
-2.8722

> <Gold.PLP.part.metal>
0.0000

> <Gold.PLP.part.buried>
-5.7029

> <Gold.PLP.part.nonpolar>
-25.8139

> <Gold.PLP.part.repulsive>
1.2375

> <Gold.PLP.ligand.clash>
0.0000

> <Gold.PLP.ligand.torsion>
0.7241

> <Gold.PLP.Chemscore.Hbond>
2.9913

> <Gold.PLP.Chemscore.CHOScore>
1.0000

> <Gold.PLP.Chemscore.Metal>
0.0000

> <Gold.Chemscore.Hbonds>
donor molecule, donor type, donor heavy atom, donor atom, acceptor molecule, acceptor atom, score
      L1  H     8    33       P1  7948  1.00
      L1  H    11    34       P1  7948  1.00
      P1  H  7989  7998       L1    20  0.83
      L1  C    14    35       P1 10186  0.95

> <Gold.PLP.Chemscore.Internal.Correction>
0.0787

> <Gold.Rescore>
     Score         DG    S(hbond)    S(metal)    S(lipo)     H(rot)  DE(clash)    DE(int)     intcor
     17.85     -19.92       2.89        0.00      75.36       1.57       0.02       2.05       ----

> <Gold.Chemscore.Fitness>
17.8468

> <Gold.Chemscore.DG>
-19.9181

> <Gold.Chemscore.ZeroCoef>
-5.4800

> <Gold.Chemscore.Hbond>
2.8900

> <Gold.Chemscore.Metal>
0.0000

> <Gold.Chemscore.Lipo>
75.3616

> <Gold.Chemscore.Internal_Hbond>
0.0000

> <Gold.Chemscore.DEClash>
0.0166

> <Gold.Chemscore.DEInternal>
2.0547

> <Gold.Chemscore.Rot>
1.5750

> <Gold.Chemscore.Internal.Correction>
   9.000000E+99

> <Gold.Chemscore.Hbonds>
donor molecule, donor type, donor heavy atom, donor atom, acceptor molecule, acceptor atom, score
      L1  H     8    33       P1  7948  0.99
      L1  H    11    34       P1  7948  0.96
      P1  H  7989  7998       L1    20  0.77

> <Gold.Chemscore.Hbond.Weighted>
-9.6527

> <Gold.Chemscore.Metal.Weighted>
-0.0000

> <Gold.Chemscore.Lipo.Weighted>
-8.8173

> <Gold.Chemscore.Internal_Hbond.Weighted>
0.0000

> <Gold.Chemscore.DEClash.Weighted>
0.0166

> <Gold.Chemscore.DEInternal.Weighted>
2.0547

> <Gold.Chemscore.Rot.Weighted>
4.0319

> <Gold.Chemscore.Internal.Correction.Weighted>
   9.000000E+99

> <Gold.Protein.RotatedTorsions>
[ 6907 6896 6895 6894 ] final   26.90 input  -60.11 | X-H torsion
[ 7974 7965 7964 7962 ] final   23.07 input  175.53 | X-H torsion
[ 8008 7997 7996 7995 ] final  115.76 input   59.86 | X-H torsion
[ 10167 10162 10161 10158 ] final  -53.28 input  -65.29 | X-H torsion
[ 10718 10713 10712 10709 ] final   92.36 input   66.30 | X-H torsion
[ 10763 10752 10751 10750 ] final -170.06 input  -60.55 | X-H torsion
[ 11005 11000 10999 10996 ] final   32.56 input  -57.11 | X-H torsion

> <Gold.Protein.ActiveResidues>
 VAL166  LYS551  ARG553  GLY616  TRP617  ASP618  TYR619  PRO620  LYS621  CYS622 
 ASP623  PHE694  ASN695  SER759  ASP760  ASP761  ALA762  ILE779  LEU786  VAL792 
 PHE793  MET794  SER795  GLU796  ALA797  LYS798  CYS799  TRP800  GLU811  SER814 

> <Gold.Protein.RotatedAtoms>
  151.9942  134.9963  160.0562 H   0  0  0  0  0  0  0  0  0  0  0  0  # atno 6907 bound_to 6896
  152.1579  133.4558  159.4854 H   0  0  0  0  0  0  0  0  0  0  0  0  # atno 6908 bound_to 6896
  150.6884  134.2025  159.4371 H   0  0  0  0  0  0  0  0  0  0  0  0  # atno 6909 bound_to 6896
  146.2001  139.7797  142.8768 H   0  0  0  0  0  0  0  0  0  0  0  0  # atno 7974 bound_to 7965
  156.2400  140.2932  156.0418 H   0  0  0  0  0  0  0  0  0  0  0  0  # atno 8008 bound_to 7997
  155.1979  140.0408  157.2929 H   0  0  0  0  0  0  0  0  0  0  0  0  # atno 8009 bound_to 7997
  154.6150  140.2461  155.7627 H   0  0  0  0  0  0  0  0  0  0  0  0  # atno 8010 bound_to 7997
  140.6493  143.2555  151.4769 H   0  0  0  0  0  0  0  0  0  0  0  0  # atno 10167 bound_to 10162
  157.6959  131.0440  150.3871 H   0  0  0  0  0  0  0  0  0  0  0  0  # atno 10718 bound_to 10713
  154.6456  135.2904  155.0051 H   0  0  0  0  0  0  0  0  0  0  0  0  # atno 10763 bound_to 10752
  154.1162  135.6555  153.4898 H   0  0  0  0  0  0  0  0  0  0  0  0  # atno 10764 bound_to 10752
  153.0349  135.5277  154.7341 H   0  0  0  0  0  0  0  0  0  0  0  0  # atno 10765 bound_to 10752
  140.2722  134.3069  155.7824 H   0  0  0  0  0  0  0  0  0  0  0  0  # atno 11005 bound_to 11000
  145.3513  141.0308  143.3337 LP  0  0  0  0  0  0  0  0  0  0  0  0  # atno 17320 bound_to 7965
  144.8664  139.5101  143.6788 LP  0  0  0  0  0  0  0  0  0  0  0  0  # atno 17321 bound_to 7965
  139.5706  144.1937  152.1831 LP  0  0  0  0  0  0  0  0  0  0  0  0  # atno 17342 bound_to 10162
  140.1232  144.5355  150.6849 LP  0  0  0  0  0  0  0  0  0  0  0  0  # atno 17343 bound_to 10162
  156.4278  130.3966  149.6781 LP  0  0  0  0  0  0  0  0  0  0  0  0  # atno 17370 bound_to 10713
  156.4009  130.7674  151.2682 LP  0  0  0  0  0  0  0  0  0  0  0  0  # atno 17371 bound_to 10713
  141.2176  133.7473  156.9352 LP  0  0  0  0  0  0  0  0  0  0  0  0  # atno 17394 bound_to 11000
  140.1362  134.9323  157.2405 LP  0  0  0  0  0  0  0  0  0  0  0  0  # atno 17395 bound_to 11000

$$$$
