AV-unprocessed.smi:909|AV-procd|sdf|4115|dock10
  -GOLD-   22720 2 13D 1   1.00000     0.00000
 Structure written by MMmdl.
 39 40  0  0  0  0  0  0  0  0  2 V2000
  151.1581  145.1146  159.7449 C   0  0  0  0  0  0  0  0  0  0  0  0
  151.9722  143.9457  160.2198 C   0  0  0  0  0  0  0  0  0  0  0  0
  152.4015  143.9158  161.4704 N   0  0  0  0  0  0  0  0  0  0  0  0
  153.1078  142.7167  161.6039 O   0  0  0  0  0  0  0  0  0  0  0  0
  153.0797  142.0662  160.4128 C   0  0  0  0  0  0  0  0  0  0  0  0
  153.7747  140.7480  160.3526 C   0  0  0  0  0  0  0  0  0  0  0  0
  152.3819  142.7944  159.4883 C   0  0  0  0  0  0  0  0  0  0  0  0
  152.0979  142.4635  158.0455 C   0  0  0  0  0  0  0  0  0  0  0  0
  151.5301  141.0483  157.9484 C   0  0  0  0  0  0  0  0  0  0  0  0
  151.1769  140.4709  158.9747 O   0  0  0  0  0  0  0  0  0  0  0  0
  151.4861  140.5306  156.7067 N   0  0  0  0  0  0  0  0  0  0  0  0
  151.0321  139.2314  156.1828 C   0  0  0  0  0  0  0  0  0  0  0  0
  152.2954  138.3347  156.1943 C   0  0  0  0  0  0  0  0  0  0  0  0
  152.2061  137.1868  155.7040 O   0  0  0  0  0  0  0  0  0  0  0  0
  153.3292  138.7884  156.7361 O   0  5  0  0  0  0  0  0  0  0  0  0
  149.8751  138.5307  156.9695 C   0  0  0  0  0  0  0  0  0  0  0  0
  148.4949  139.1953  156.7917 C   0  0  0  0  0  0  0  0  0  0  0  0
  148.1310  139.3527  155.3119 C   0  0  0  0  0  0  0  0  0  0  0  0
  149.2210  140.1347  154.5719 C   0  0  0  0  0  0  0  0  0  0  0  0
  150.5877  139.4429  154.7060 C   0  0  0  0  0  0  0  0  0  0  0  0
  151.7937  145.8688  159.2813 H   0  0  0  0  0  0  0  0  0  0  0  0
  150.6214  145.5893  160.5670 H   0  0  0  0  0  0  0  0  0  0  0  0
  150.4176  144.8038  159.0076 H   0  0  0  0  0  0  0  0  0  0  0  0
  153.0552  139.9316  160.4146 H   0  0  0  0  0  0  0  0  0  0  0  0
  154.4812  140.6383  161.1758 H   0  0  0  0  0  0  0  0  0  0  0  0
  154.3263  140.6420  159.4184 H   0  0  0  0  0  0  0  0  0  0  0  0
  151.3845  143.1638  157.6095 H   0  0  0  0  0  0  0  0  0  0  0  0
  152.9989  142.5339  157.4347 H   0  0  0  0  0  0  0  0  0  0  0  0
  151.8472  141.1402  155.9879 H   0  0  0  0  0  0  0  0  0  0  0  0
  149.7828  137.5036  156.6123 H   0  0  0  0  0  0  0  0  0  0  0  0
  150.1094  138.4352  158.0299 H   0  0  0  0  0  0  0  0  0  0  0  0
  147.7342  138.5993  157.2964 H   0  0  0  0  0  0  0  0  0  0  0  0
  148.4763  140.1743  157.2682 H   0  0  0  0  0  0  0  0  0  0  0  0
  148.0065  138.3701  154.8552 H   0  0  0  0  0  0  0  0  0  0  0  0
  147.1733  139.8646  155.2160 H   0  0  0  0  0  0  0  0  0  0  0  0
  148.9569  140.2274  153.5182 H   0  0  0  0  0  0  0  0  0  0  0  0
  149.2792  141.1501  154.9659 H   0  0  0  0  0  0  0  0  0  0  0  0
  151.3303  140.0265  154.1591 H   0  0  0  0  0  0  0  0  0  0  0  0
  150.5321  138.4787  154.1972 H   0  0  0  0  0  0  0  0  0  0  0  0
  1  2  1  0  0  0  0
  1 21  1  0  0  0  0
  1 22  1  0  0  0  0
  1 23  1  0  0  0  0
  2  7  1  0  0  0  0
  2  3  2  0  0  0  0
  3  4  1  0  0  0  0
  4  5  1  0  0  0  0
  5  6  1  0  0  0  0
  5  7  2  0  0  0  0
  6 24  1  0  0  0  0
  6 25  1  0  0  0  0
  6 26  1  0  0  0  0
  7  8  1  0  0  0  0
  8  9  1  0  0  0  0
  8 27  1  0  0  0  0
  8 28  1  0  0  0  0
  9 10  2  0  0  0  0
  9 11  1  0  0  0  0
 11 12  1  0  0  0  0
 11 29  1  0  0  0  0
 12 20  1  0  0  0  0
 12 13  1  0  0  0  0
 12 16  1  0  0  0  0
 13 14  2  0  0  0  0
 13 15  1  0  0  0  0
 16 17  1  0  0  0  0
 16 30  1  0  0  0  0
 16 31  1  0  0  0  0
 17 18  1  0  0  0  0
 17 32  1  0  0  0  0
 17 33  1  0  0  0  0
 18 19  1  0  0  0  0
 18 34  1  0  0  0  0
 18 35  1  0  0  0  0
 19 20  1  0  0  0  0
 19 36  1  0  0  0  0
 19 37  1  0  0  0  0
 20 38  1  0  0  0  0
 20 39  1  0  0  0  0
M  CHG  1  15  -1
M  END
> <s_m_source_file>
AV-unprocessed.smi

> <i_m_source_file_index>
909

> <i_lp_mmshare_version>
43012

> <i_f3d_flags>
0

> <s_epik_input>
W0NIM11jMW5vYyhbQ0gzXSljMVtDSDJdQyg9TylbTkhdQzIoQyg9TylbT0hdKVtDSDJdW0NIMl1bQ0gyXVtDSDJdW0NIMl0y

> <s_epik_cmdline>
J2VwaWtfcHl0aG9uJywgJy1waCcsICc3LjAnLCAnLXRuJywgJzgnLCAnLW1hJywgJzIwMCcsICctbWV0YWxfYmluZGluZycsICctaW1hZScsICc8aW5maWxlLm1hZT4nLCAnLW9tYWUnLCAnPG91dGZpbGUubWFlPic=

> <r_epik_Ionization_Penalty>
0.000391234

> <r_epik_Ionization_Penalty_Charging>
0.000391215

> <r_epik_Ionization_Penalty_Neutral>
1.90707e-08

> <r_epik_State_Penalty>
0.000239413

> <r_epik_Charging_Adjusted_Penalty>
0.000630628

> <i_epik_Tot_Q>
-1

> <i_epik_Tot_abs_Q>
1

> <r_epik_Metal_State_Penalty>
-0

> <b_epik_Metal_Only>
0

> <s_lp_Force_Field>
OPLS_2005

> <r_lp_Energy>
2.68806

> <b_lp_Chiralities_Consistent>
1

> <s_lp_Variant>
AV-unprocessed.smi:909-1

> <Gold.Version>
5.8.1

> <Gold.Id.Protein>
6NUR|6NUR_protein|mol2

> <Gold.PLP.Fitness>
43.4979

> <Gold.PLP.PLP>
-33.6921

> <Gold.PLP.part.hbond>
-2.0000

> <Gold.PLP.part.metal>
0.0000

> <Gold.PLP.part.buried>
-5.9764

> <Gold.PLP.part.nonpolar>
-26.6700

> <Gold.PLP.part.repulsive>
0.3460

> <Gold.PLP.ligand.clash>
0.0000

> <Gold.PLP.ligand.torsion>
0.8166

> <Gold.PLP.Chemscore.Hbond>
3.7920

> <Gold.PLP.Chemscore.CHOScore>
0.0000

> <Gold.PLP.Chemscore.Metal>
0.0000

> <Gold.Chemscore.Hbonds>
donor molecule, donor type, donor heavy atom, donor atom, acceptor molecule, acceptor atom, score
      P1  H  7997  8009       L1    15  2.00
      P1  H 10752 10764       L1    14  1.73

> <Gold.PLP.Chemscore.Internal.Correction>
0.0628

> <Gold.Rescore>
     Score         DG    S(hbond)    S(metal)    S(lipo)     H(rot)  DE(clash)    DE(int)     intcor
     15.81     -16.78       1.85        0.00      86.05       1.93       0.13       0.84       ----

> <Gold.Chemscore.Fitness>
15.8085

> <Gold.Chemscore.DG>
-16.7795

> <Gold.Chemscore.ZeroCoef>
-5.4800

> <Gold.Chemscore.Hbond>
1.8471

> <Gold.Chemscore.Metal>
0.0000

> <Gold.Chemscore.Lipo>
86.0530

> <Gold.Chemscore.Internal_Hbond>
0.0000

> <Gold.Chemscore.DEClash>
0.1338

> <Gold.Chemscore.DEInternal>
0.8372

> <Gold.Chemscore.Rot>
1.9289

> <Gold.Chemscore.Internal.Correction>
   9.000000E+99

> <Gold.Chemscore.Hbonds>
donor molecule, donor type, donor heavy atom, donor atom, acceptor molecule, acceptor atom, score
      P1  H  7997  8009       L1    15  0.96
      P1  H 10752 10764       L1    14  0.80

> <Gold.Chemscore.Hbond.Weighted>
-6.1692

> <Gold.Chemscore.Metal.Weighted>
-0.0000

> <Gold.Chemscore.Lipo.Weighted>
-10.0682

> <Gold.Chemscore.Internal_Hbond.Weighted>
0.0000

> <Gold.Chemscore.DEClash.Weighted>
0.1338

> <Gold.Chemscore.DEInternal.Weighted>
0.8372

> <Gold.Chemscore.Rot.Weighted>
4.9379

> <Gold.Chemscore.Internal.Correction.Weighted>
   9.000000E+99

> <Gold.Protein.RotatedTorsions>
[ 6907 6896 6895 6894 ] final  -37.36 input  -60.11 | X-H torsion
[ 7974 7965 7964 7962 ] final  171.97 input  175.53 | X-H torsion
[ 8008 7997 7996 7995 ] final  172.62 input   59.86 | X-H torsion
[ 10167 10162 10161 10158 ] final  151.29 input  -65.29 | X-H torsion
[ 10718 10713 10712 10709 ] final   65.62 input   66.30 | X-H torsion
[ 10763 10752 10751 10750 ] final  -45.91 input  -60.55 | X-H torsion
[ 11005 11000 10999 10996 ] final   37.76 input  -57.11 | X-H torsion

> <Gold.Protein.ActiveResidues>
 VAL166  LYS551  ARG553  GLY616  TRP617  ASP618  TYR619  PRO620  LYS621  CYS622 
 ASP623  PHE694  ASN695  SER759  ASP760  ASP761  ALA762  ILE779  LEU786  VAL792 
 PHE793  MET794  SER795  GLU796  ALA797  LYS798  CYS799  TRP800  GLU811  SER814 

> <Gold.Protein.RotatedAtoms>
  151.0157  134.9431  159.8031 H   0  0  0  0  0  0  0  0  0  0  0  0  # atno 6907 bound_to 6896
  152.5313  134.2969  159.9074 H   0  0  0  0  0  0  0  0  0  0  0  0  # atno 6908 bound_to 6896
  151.2976  133.4095  159.2671 H   0  0  0  0  0  0  0  0  0  0  0  0  # atno 6909 bound_to 6896
  144.7280  139.9429  143.6429 H   0  0  0  0  0  0  0  0  0  0  0  0  # atno 7974 bound_to 7965
  156.1156  140.1481  156.9277 H   0  0  0  0  0  0  0  0  0  0  0  0  # atno 8008 bound_to 7997
  154.4798  140.0883  156.7393 H   0  0  0  0  0  0  0  0  0  0  0  0  # atno 8009 bound_to 7997
  155.4519  140.3435  155.4304 H   0  0  0  0  0  0  0  0  0  0  0  0  # atno 8010 bound_to 7997
  139.4842  144.5452  151.7495 H   0  0  0  0  0  0  0  0  0  0  0  0  # atno 10167 bound_to 10162
  157.6117  130.9223  150.0000 H   0  0  0  0  0  0  0  0  0  0  0  0  # atno 10718 bound_to 10713
  154.0362  135.6650  153.4785 H   0  0  0  0  0  0  0  0  0  0  0  0  # atno 10763 bound_to 10752
  153.0520  135.5079  154.7885 H   0  0  0  0  0  0  0  0  0  0  0  0  # atno 10764 bound_to 10752
  154.6847  135.3051  154.9530 H   0  0  0  0  0  0  0  0  0  0  0  0  # atno 10765 bound_to 10752
  140.2193  134.3660  155.8012 H   0  0  0  0  0  0  0  0  0  0  0  0  # atno 11005 bound_to 11000
  146.0771  139.3758  143.0487 LP  0  0  0  0  0  0  0  0  0  0  0  0  # atno 17320 bound_to 7965
  145.7891  140.9822  143.1058 LP  0  0  0  0  0  0  0  0  0  0  0  0  # atno 17321 bound_to 7965
  140.4998  144.1186  150.5968 LP  0  0  0  0  0  0  0  0  0  0  0  0  # atno 17342 bound_to 10162
  140.4075  143.2673  151.9873 LP  0  0  0  0  0  0  0  0  0  0  0  0  # atno 17343 bound_to 10162
  156.1222  130.3645  149.9868 LP  0  0  0  0  0  0  0  0  0  0  0  0  # atno 17370 bound_to 10713
  156.7946  130.9268  151.3646 LP  0  0  0  0  0  0  0  0  0  0  0  0  # atno 17371 bound_to 10713
  141.2223  133.7185  156.8549 LP  0  0  0  0  0  0  0  0  0  0  0  0  # atno 17394 bound_to 11000
  140.1867  134.8995  157.3012 LP  0  0  0  0  0  0  0  0  0  0  0  0  # atno 17395 bound_to 11000

$$$$
