AV-unprocessed.smi:2867|AV-procd|sdf|11025|dock1
  -GOLD-   2272015483D 1   1.00000     0.00000
 Structure written by MMmdl.
 39 41  0  0  0  0  0  0  0  0  2 V2000
  151.6968  138.1170  154.4592 C   0  0  0  0  0  0  0  0  0  0  0  0
  151.6124  139.5031  154.7403 O   0  0  0  0  0  0  0  0  0  0  0  0
  150.5397  139.8146  155.6115 C   0  0  0  0  0  0  0  0  0  0  0  0
  150.5020  141.3317  155.8285 C   0  0  0  0  0  0  0  0  0  0  0  0
  149.3463  141.7259  156.6174 N   0  0  0  0  0  0  0  0  0  0  0  0
  149.3382  142.3308  157.8322 C   0  0  0  0  0  0  0  0  0  0  0  0
  150.5396  142.6849  158.5737 C   0  0  0  0  0  0  0  0  0  0  0  0
  151.5248  141.7110  158.8418 C   0  0  0  0  0  0  0  0  0  0  0  0
  152.6858  142.0606  159.5585 C   0  0  0  0  0  0  0  0  0  0  0  0
  152.8628  143.3825  160.0114 C   0  0  0  0  0  0  0  0  0  0  0  0
  151.8776  144.3550  159.7499 C   0  0  0  0  0  0  0  0  0  0  0  0
  152.0481  145.6255  160.1859 F   0  0  0  0  0  0  0  0  0  0  0  0
  150.7160  144.0062  159.0341 C   0  0  0  0  0  0  0  0  0  0  0  0
  148.1259  142.6067  158.3171 N   0  0  0  0  0  0  0  0  0  0  0  0
  147.2781  142.1392  157.3322 C   0  0  0  0  0  0  0  0  0  0  0  0
  145.8681  142.1448  157.2552 C   0  0  0  0  0  0  0  0  0  0  0  0
  145.2206  141.6101  156.1210 C   0  0  0  0  0  0  0  0  0  0  0  0
  143.4318  141.6314  156.0389 S   0  0  0  0  0  0  0  0  0  0  0  0
  143.2954  142.8190  154.9560 N   0  5  0  0  0  0  0  0  0  0  0  0
  143.0175  140.3236  155.5077 O   0  0  0  0  0  0  0  0  0  0  0  0
  142.9563  142.0207  157.3758 O   0  0  0  0  0  0  0  0  0  0  0  0
  145.9637  141.0618  155.0536 C   0  0  0  0  0  0  0  0  0  0  0  0
  147.3701  141.0466  155.1169 C   0  0  0  0  0  0  0  0  0  0  0  0
  148.0134  141.5816  156.2494 C   0  0  0  0  0  0  0  0  0  0  0  0
  152.5293  137.9307  153.7809 H   0  0  0  0  0  0  0  0  0  0  0  0
  150.7857  137.7539  153.9819 H   0  0  0  0  0  0  0  0  0  0  0  0
  151.8692  137.5406  155.3693 H   0  0  0  0  0  0  0  0  0  0  0  0
  149.5976  139.4709  155.1809 H   0  0  0  0  0  0  0  0  0  0  0  0
  150.6727  139.3028  156.5663 H   0  0  0  0  0  0  0  0  0  0  0  0
  151.4058  141.6598  156.3429 H   0  0  0  0  0  0  0  0  0  0  0  0
  150.4858  141.8553  154.8731 H   0  0  0  0  0  0  0  0  0  0  0  0
  151.3917  140.6959  158.4964 H   0  0  0  0  0  0  0  0  0  0  0  0
  153.4406  141.3151  159.7612 H   0  0  0  0  0  0  0  0  0  0  0  0
  153.7536  143.6502  160.5602 H   0  0  0  0  0  0  0  0  0  0  0  0
  149.9627  144.7544  158.8344 H   0  0  0  0  0  0  0  0  0  0  0  0
  145.2871  142.5659  158.0622 H   0  0  0  0  0  0  0  0  0  0  0  0
  142.9471  142.4070  154.0825 H   0  0  0  0  0  0  0  0  0  0  0  0
  145.4593  140.6595  154.1875 H   0  0  0  0  0  0  0  0  0  0  0  0
  147.9457  140.6323  154.3027 H   0  0  0  0  0  0  0  0  0  0  0  0
  1  2  1  0  0  0  0
  1 25  1  0  0  0  0
  1 26  1  0  0  0  0
  1 27  1  0  0  0  0
  2  3  1  0  0  0  0
  3  4  1  0  0  0  0
  3 28  1  0  0  0  0
  3 29  1  0  0  0  0
  4  5  1  0  0  0  0
  4 30  1  0  0  0  0
  4 31  1  0  0  0  0
  5 24  1  0  0  0  0
  5  6  1  0  0  0  0
  6  7  1  0  0  0  0
  6 14  2  0  0  0  0
  7 13  1  0  0  0  0
  7  8  2  0  0  0  0
  8  9  1  0  0  0  0
  8 32  1  0  0  0  0
  9 10  2  0  0  0  0
  9 33  1  0  0  0  0
 10 11  1  0  0  0  0
 10 34  1  0  0  0  0
 11 12  1  0  0  0  0
 11 13  2  0  0  0  0
 13 35  1  0  0  0  0
 14 15  1  0  0  0  0
 15 24  2  0  0  0  0
 15 16  1  0  0  0  0
 16 17  2  0  0  0  0
 16 36  1  0  0  0  0
 17 18  1  0  0  0  0
 17 22  1  0  0  0  0
 18 19  1  0  0  0  0
 18 20  2  0  0  0  0
 18 21  2  0  0  0  0
 19 37  1  0  0  0  0
 22 23  2  0  0  0  0
 22 38  1  0  0  0  0
 23 24  1  0  0  0  0
 23 39  1  0  0  0  0
M  CHG  1  19  -1
M  END
> <s_m_source_file>
AV-unprocessed.smi

> <i_m_source_file_index>
2867

> <i_lp_mmshare_version>
43012

> <i_f3d_flags>
0

> <s_epik_input>
W05IMl1TKD1PKSg9TyljKFtjSF0xKVtjSF1bY0hdYyhjMTIpbihbQ0gyXVtDSDJdT1tDSDNdKWMobjIpLWMzW2NIXVtjSF1bY0hdYyhGKVtjSF0z

> <s_epik_cmdline>
J2VwaWtfcHl0aG9uJywgJy1waCcsICc3LjAnLCAnLXRuJywgJzgnLCAnLW1hJywgJzIwMCcsICctbWV0YWxfYmluZGluZycsICctaW1hZScsICc8aW5maWxlLm1hZT4nLCAnLW9tYWUnLCAnPG91dGZpbGUubWFlPic=

> <r_epik_Ionization_Penalty>
4.13732

> <r_epik_Ionization_Penalty_Charging>
3.73366

> <r_epik_Ionization_Penalty_Neutral>
0.403663

> <r_epik_State_Penalty>
3.79183

> <r_epik_Charging_Adjusted_Penalty>
7.52549

> <i_epik_Tot_Q>
-1

> <i_epik_Tot_abs_Q>
1

> <r_epik_Metal_State_Penalty>
0.634538

> <b_epik_Metal_Only>
1

> <s_lp_Force_Field>
OPLS_2005

> <r_lp_Energy>
13.7357

> <b_lp_Chiralities_Consistent>
1

> <s_lp_Variant>
AV-unprocessed.smi:2867-3

> <Gold.Version>
5.8.1

> <Gold.Id.Protein>
6NUR|6NUR_protein|mol2

> <Gold.PLP.Fitness>
45.5264

> <Gold.PLP.PLP>
-40.2391

> <Gold.PLP.part.hbond>
-2.0000

> <Gold.PLP.part.metal>
0.0000

> <Gold.PLP.part.buried>
-6.7320

> <Gold.PLP.part.nonpolar>
-32.9784

> <Gold.PLP.part.repulsive>
0.6502

> <Gold.PLP.ligand.clash>
0.0000

> <Gold.PLP.ligand.torsion>
2.0347

> <Gold.PLP.Chemscore.Hbond>
2.0000

> <Gold.PLP.Chemscore.CHOScore>
0.0000

> <Gold.PLP.Chemscore.Metal>
0.0000

> <Gold.Chemscore.Hbonds>
donor molecule, donor type, donor heavy atom, donor atom, acceptor molecule, acceptor atom, score
      L1  H    19    37       P1 10174  1.00
      P1  H  7989  7998       L1     2  1.00

> <Gold.PLP.Chemscore.Internal.Correction>
3.3567

> <Gold.Rescore>
     Score         DG    S(hbond)    S(metal)    S(lipo)     H(rot)  DE(clash)    DE(int)     intcor
     15.30     -17.51       1.37        0.00      95.04       1.43       0.20       2.02       ----

> <Gold.Chemscore.Fitness>
15.2968

> <Gold.Chemscore.DG>
-17.5134

> <Gold.Chemscore.ZeroCoef>
-5.4800

> <Gold.Chemscore.Hbond>
1.3704

> <Gold.Chemscore.Metal>
0.0000

> <Gold.Chemscore.Lipo>
95.0351

> <Gold.Chemscore.Internal_Hbond>
0.0000

> <Gold.Chemscore.DEClash>
0.1971

> <Gold.Chemscore.DEInternal>
2.0195

> <Gold.Chemscore.Rot>
1.4308

> <Gold.Chemscore.Internal.Correction>
   9.000000E+99

> <Gold.Chemscore.Hbonds>
donor molecule, donor type, donor heavy atom, donor atom, acceptor molecule, acceptor atom, score
      L1  H    19    37       P1 10174  0.24
      P1  H  7989  7998       L1     2  0.54

> <Gold.Chemscore.Hbond.Weighted>
-4.5771

> <Gold.Chemscore.Metal.Weighted>
-0.0000

> <Gold.Chemscore.Lipo.Weighted>
-11.1191

> <Gold.Chemscore.Internal_Hbond.Weighted>
0.0000

> <Gold.Chemscore.DEClash.Weighted>
0.1971

> <Gold.Chemscore.DEInternal.Weighted>
2.0195

> <Gold.Chemscore.Rot.Weighted>
3.6628

> <Gold.Chemscore.Internal.Correction.Weighted>
   9.000000E+99

> <Gold.Protein.RotatedTorsions>
[ 6907 6896 6895 6894 ] final -137.93 input  -60.11 | X-H torsion
[ 7974 7965 7964 7962 ] final   54.25 input  175.53 | X-H torsion
[ 8008 7997 7996 7995 ] final   40.10 input   59.86 | X-H torsion
[ 10167 10162 10161 10158 ] final  -72.00 input  -65.29 | X-H torsion
[ 10718 10713 10712 10709 ] final  172.02 input   66.30 | X-H torsion
[ 10763 10752 10751 10750 ] final  -54.04 input  -60.55 | X-H torsion
[ 11005 11000 10999 10996 ] final  -51.06 input  -57.11 | X-H torsion

> <Gold.Protein.ActiveResidues>
 VAL166  LYS551  ARG553  GLY616  TRP617  ASP618  TYR619  PRO620  LYS621  CYS622 
 ASP623  PHE694  ASN695  SER759  ASP760  ASP761  ALA762  ILE779  LEU786  VAL792 
 PHE793  MET794  SER795  GLU796  ALA797  LYS798  CYS799  TRP800  GLU811  SER814 

> <Gold.Protein.RotatedAtoms>
  151.0286  133.5811  159.2662 H   0  0  0  0  0  0  0  0  0  0  0  0  # atno 6907 bound_to 6896
  151.2901  135.0738  159.9211 H   0  0  0  0  0  0  0  0  0  0  0  0  # atno 6908 bound_to 6896
  152.5339  133.9986  159.7938 H   0  0  0  0  0  0  0  0  0  0  0  0  # atno 6909 bound_to 6896
  145.9628  139.4075  143.0238 H   0  0  0  0  0  0  0  0  0  0  0  0  # atno 7974 bound_to 7965
  155.2476  140.3350  155.4285 H   0  0  0  0  0  0  0  0  0  0  0  0  # atno 8008 bound_to 7997
  156.2229  140.1817  156.7477 H   0  0  0  0  0  0  0  0  0  0  0  0  # atno 8009 bound_to 7997
  154.5854  140.0647  156.9148 H   0  0  0  0  0  0  0  0  0  0  0  0  # atno 8010 bound_to 7997
  140.5228  143.2330  151.7401 H   0  0  0  0  0  0  0  0  0  0  0  0  # atno 10167 bound_to 10162
  156.9851  131.0131  151.2871 H   0  0  0  0  0  0  0  0  0  0  0  0  # atno 10718 bound_to 10713
  154.1685  135.6463  153.5003 H   0  0  0  0  0  0  0  0  0  0  0  0  # atno 10763 bound_to 10752
  153.0091  135.5377  154.6637 H   0  0  0  0  0  0  0  0  0  0  0  0  # atno 10764 bound_to 10752
  154.5970  135.2940  155.0548 H   0  0  0  0  0  0  0  0  0  0  0  0  # atno 10765 bound_to 10752
  141.0850  133.6644  156.3822 H   0  0  0  0  0  0  0  0  0  0  0  0  # atno 11005 bound_to 11000
  145.8016  140.9768  143.0996 LP  0  0  0  0  0  0  0  0  0  0  0  0  # atno 17320 bound_to 7965
  144.6819  139.9809  143.7483 LP  0  0  0  0  0  0  0  0  0  0  0  0  # atno 17321 bound_to 7965
  139.4928  144.4230  151.9956 LP  0  0  0  0  0  0  0  0  0  0  0  0  # atno 17342 bound_to 10162
  140.3328  144.3296  150.5983 LP  0  0  0  0  0  0  0  0  0  0  0  0  # atno 17343 bound_to 10162
  157.5499  130.8175  149.8132 LP  0  0  0  0  0  0  0  0  0  0  0  0  # atno 17370 bound_to 10713
  156.0229  130.3789  150.1908 LP  0  0  0  0  0  0  0  0  0  0  0  0  # atno 17371 bound_to 10713
  140.5382  134.6146  157.5371 LP  0  0  0  0  0  0  0  0  0  0  0  0  # atno 17394 bound_to 11000
  139.9668  134.7360  156.0122 LP  0  0  0  0  0  0  0  0  0  0  0  0  # atno 17395 bound_to 11000

$$$$
