AV-unprocessed.smi:1816|AV-procd|sdf|7367|dock10
  -GOLD-   22720 9 33D 1   1.00000     0.00000
 Structure written by MMmdl.
 35 36  0  0  0  0  0  0  0  0  3 V2000
  151.4519  137.6832  154.4796 C   0  0  0  0  0  0  0  0  0  0  0  0
  150.4568  136.8290  155.2981 C   0  0  1  0  0  0  0  0  0  0  0  0
  150.3305  137.3678  156.7425 C   0  0  0  0  0  0  0  0  0  0  0  0
  149.7920  136.3628  157.6504 N   0  0  0  0  0  0  0  0  0  0  0  0
  149.3754  136.5979  158.9010 C   0  0  0  0  0  0  0  0  0  0  0  0
  149.4304  137.7407  159.3610 O   0  0  0  0  0  0  0  0  0  0  0  0
  148.9237  135.4946  159.5378 N   0  5  0  0  0  0  0  0  0  0  0  0
  148.2431  135.6147  160.6895 C   0  0  0  0  0  0  0  0  0  0  0  0
  148.2543  136.7289  161.4304 N   0  0  0  0  0  0  0  0  0  0  0  0
  147.4725  136.6365  162.5833 C   0  0  0  0  0  0  0  0  0  0  0  0
  146.8435  135.4272  162.7181 C   0  0  0  0  0  0  0  0  0  0  0  0
  147.2178  134.3615  161.3939 S   0  0  0  0  0  0  0  0  0  0  0  0
  149.1200  136.7779  154.6387 N   0  3  0  0  0  0  0  0  0  0  0  0
  148.1695  135.7852  155.1861 C   0  0  0  0  0  0  0  0  0  0  0  0
  146.7965  136.2519  154.7172 C   0  0  0  0  0  0  0  0  0  0  0  0
  146.9038  137.7698  154.8020 C   0  0  0  0  0  0  0  0  0  0  0  0
  148.3924  138.0716  154.5795 C   0  0  0  0  0  0  0  0  0  0  0  0
  152.4296  137.7346  154.9587 H   0  0  0  0  0  0  0  0  0  0  0  0
  151.0907  138.7053  154.3620 H   0  0  0  0  0  0  0  0  0  0  0  0
  151.6240  137.2724  153.4851 H   0  0  0  0  0  0  0  0  0  0  0  0
  150.8457  135.8102  155.3422 H   0  0  0  0  0  0  0  0  0  0  0  0
  151.3073  137.6935  157.1048 H   0  0  0  0  0  0  0  0  0  0  0  0
  149.6716  138.2356  156.7838 H   0  0  0  0  0  0  0  0  0  0  0  0
  149.7303  135.4146  157.3095 H   0  0  0  0  0  0  0  0  0  0  0  0
  147.4198  137.4821  163.2527 H   0  0  0  0  0  0  0  0  0  0  0  0
  146.1862  135.0998  163.5094 H   0  0  0  0  0  0  0  0  0  0  0  0
  148.3929  134.7732  154.8469 H   0  0  0  0  0  0  0  0  0  0  0  0
  148.2097  135.7984  156.2767 H   0  0  0  0  0  0  0  0  0  0  0  0
  146.6346  135.9478  153.6819 H   0  0  0  0  0  0  0  0  0  0  0  0
  145.9816  135.8488  155.3193 H   0  0  0  0  0  0  0  0  0  0  0  0
  146.2604  138.2732  154.0798 H   0  0  0  0  0  0  0  0  0  0  0  0
  146.6076  138.1029  155.7977 H   0  0  0  0  0  0  0  0  0  0  0  0
  148.7415  138.7673  155.3441 H   0  0  0  0  0  0  0  0  0  0  0  0
  148.5628  138.5343  153.6068 H   0  0  0  0  0  0  0  0  0  0  0  0
  149.2781  136.5053  153.6791 H   0  0  0  0  0  0  0  0  0  0  0  0
  1  2  1  0  0  0  0
  1 18  1  0  0  0  0
  1 19  1  0  0  0  0
  1 20  1  0  0  0  0
  2  3  1  0  0  0  0
  2 13  1  0  0  0  0
  2 21  1  0  0  0  0
  3  4  1  0  0  0  0
  3 22  1  0  0  0  0
  3 23  1  0  0  0  0
  4  5  1  0  0  0  0
  4 24  1  0  0  0  0
  5  6  2  0  0  0  0
  5  7  1  0  0  0  0
  7  8  1  0  0  0  0
  8 12  1  0  0  0  0
  8  9  2  0  0  0  0
  9 10  1  0  0  0  0
 10 11  2  0  0  0  0
 10 25  1  0  0  0  0
 11 12  1  0  0  0  0
 11 26  1  0  0  0  0
 13 17  1  0  0  0  0
 13 14  1  0  0  0  0
 13 35  1  0  0  0  0
 14 15  1  0  0  0  0
 14 27  1  0  0  0  0
 14 28  1  0  0  0  0
 15 16  1  0  0  0  0
 15 29  1  0  0  0  0
 15 30  1  0  0  0  0
 16 17  1  0  0  0  0
 16 31  1  0  0  0  0
 16 32  1  0  0  0  0
 17 33  1  0  0  0  0
 17 34  1  0  0  0  0
M  CHG  1   7  -1
M  CHG  1  13   1
M  END
> <s_m_source_file>
AV-unprocessed.smi

> <i_m_source_file_index>
1816

> <i_lp_mmshare_version>
43012

> <i_f3d_flags>
0

> <s_epik_input>
W0NIMl0xW0NIMl1bQ0gyXVtDSDJdTjFbQ0BIXShbQ0gzXSlbQ0gyXVtOSF1DKD1PKVtOSF1jMm5bY0hdW2NIXXMy

> <s_epik_cmdline>
J2VwaWtfcHl0aG9uJywgJy1waCcsICc3LjAnLCAnLXRuJywgJzgnLCAnLW1hJywgJzIwMCcsICctbWV0YWxfYmluZGluZycsICctaW1hZScsICc8aW5maWxlLm1hZT4nLCAnLW9tYWUnLCAnPG91dGZpbGUubWFlPic=

> <r_lp_tautomer_probability>
0.999

> <r_epik_Ionization_Penalty>
6.21769

> <r_epik_Ionization_Penalty_Charging>
5.38662

> <r_epik_Ionization_Penalty_Neutral>
0.831074

> <r_epik_State_Penalty>
5.38626

> <r_epik_Charging_Adjusted_Penalty>
10.7729

> <i_epik_Tot_Q>
0

> <i_epik_Tot_abs_Q>
2

> <r_epik_Metal_State_Penalty>
1.41347

> <b_epik_Metal_Only>
1

> <s_lp_Force_Field>
OPLS_2005

> <r_lp_Energy>
20.95

> <b_lp_Chiralities_Consistent>
1

> <s_lp_Variant>
AV-unprocessed.smi:1816-4

> <Gold.Version>
5.8.1

> <Gold.Id.Protein>
6NUR|6NUR_protein|mol2

> <Gold.PLP.Fitness>
40.6044

> <Gold.PLP.PLP>
-25.7923

> <Gold.PLP.part.hbond>
-5.6795

> <Gold.PLP.part.metal>
0.0000

> <Gold.PLP.part.buried>
-3.1998

> <Gold.PLP.part.nonpolar>
-17.9263

> <Gold.PLP.part.repulsive>
0.0559

> <Gold.PLP.ligand.clash>
0.0000

> <Gold.PLP.ligand.torsion>
0.3748

> <Gold.PLP.Chemscore.Hbond>
5.1722

> <Gold.PLP.Chemscore.CHOScore>
0.0000

> <Gold.PLP.Chemscore.Metal>
0.0000

> <Gold.Chemscore.Hbonds>
donor molecule, donor type, donor heavy atom, donor atom, acceptor molecule, acceptor atom, score
      L1  H    13    35       P1  7948  2.00
      P1  H  6896  6907       L1     7  1.20
      P1  H  6931  6943       L1     9  0.75

> <Gold.PLP.Chemscore.Internal.Correction>
0.0450

> <Gold.Rescore>
     Score         DG    S(hbond)    S(metal)    S(lipo)     H(rot)  DE(clash)    DE(int)     intcor
     13.66     -16.70       2.95        0.00      46.08       1.57       0.09       2.94       ----

> <Gold.Chemscore.Fitness>
13.6639

> <Gold.Chemscore.DG>
-16.6994

> <Gold.Chemscore.ZeroCoef>
-5.4800

> <Gold.Chemscore.Hbond>
2.9490

> <Gold.Chemscore.Metal>
0.0000

> <Gold.Chemscore.Lipo>
46.0825

> <Gold.Chemscore.Internal_Hbond>
0.0000

> <Gold.Chemscore.DEClash>
0.0930

> <Gold.Chemscore.DEInternal>
2.9425

> <Gold.Chemscore.Rot>
1.5710

> <Gold.Chemscore.Internal.Correction>
   9.000000E+99

> <Gold.Chemscore.Hbonds>
donor molecule, donor type, donor heavy atom, donor atom, acceptor molecule, acceptor atom, score
      L1  H    13    35       P1  7948  0.94
      P1  H  6896  6907       L1     7  0.04
      P1  H  6931  6943       L1     9  0.09

> <Gold.Chemscore.Hbond.Weighted>
-9.8496

> <Gold.Chemscore.Metal.Weighted>
-0.0000

> <Gold.Chemscore.Lipo.Weighted>
-5.3917

> <Gold.Chemscore.Internal_Hbond.Weighted>
0.0000

> <Gold.Chemscore.DEClash.Weighted>
0.0930

> <Gold.Chemscore.DEInternal.Weighted>
2.9425

> <Gold.Chemscore.Rot.Weighted>
4.0219

> <Gold.Chemscore.Internal.Correction.Weighted>
   9.000000E+99

> <Gold.Protein.RotatedTorsions>
[ 6907 6896 6895 6894 ] final  -58.53 input  -60.11 | X-H torsion
[ 7974 7965 7964 7962 ] final  -25.03 input  175.53 | X-H torsion
[ 8008 7997 7996 7995 ] final  -20.63 input   59.86 | X-H torsion
[ 10167 10162 10161 10158 ] final  -38.21 input  -65.29 | X-H torsion
[ 10718 10713 10712 10709 ] final  103.09 input   66.30 | X-H torsion
[ 10763 10752 10751 10750 ] final -100.68 input  -60.55 | X-H torsion
[ 11005 11000 10999 10996 ] final  -78.48 input  -57.11 | X-H torsion

> <Gold.Protein.ActiveResidues>
 VAL166  LYS551  ARG553  GLY616  TRP617  ASP618  TYR619  PRO620  LYS621  CYS622 
 ASP623  PHE694  ASN695  SER759  ASP760  ASP761  ALA762  ILE779  LEU786  VAL792 
 PHE793  MET794  SER795  GLU796  ALA797  LYS798  CYS799  TRP800  GLU811  SER814 

> <Gold.Protein.RotatedAtoms>
  150.8000  134.7086  159.6590 H   0  0  0  0  0  0  0  0  0  0  0  0  # atno 6907 bound_to 6896
  152.4116  134.6112  160.0036 H   0  0  0  0  0  0  0  0  0  0  0  0  # atno 6908 bound_to 6896
  151.6353  133.3292  159.3154 H   0  0  0  0  0  0  0  0  0  0  0  0  # atno 6909 bound_to 6896
  146.1517  140.4832  142.8608 H   0  0  0  0  0  0  0  0  0  0  0  0  # atno 7974 bound_to 7965
  154.4757  140.2056  155.9884 H   0  0  0  0  0  0  0  0  0  0  0  0  # atno 8008 bound_to 7997
  156.1085  140.3232  155.8010 H   0  0  0  0  0  0  0  0  0  0  0  0  # atno 8009 bound_to 7997
  155.4675  140.0529  157.2974 H   0  0  0  0  0  0  0  0  0  0  0  0  # atno 8010 bound_to 7997
  140.7098  143.3291  151.2610 H   0  0  0  0  0  0  0  0  0  0  0  0  # atno 10167 bound_to 10162
  157.6783  131.0770  150.5502 H   0  0  0  0  0  0  0  0  0  0  0  0  # atno 10718 bound_to 10713
  154.7599  135.4926  153.9444 H   0  0  0  0  0  0  0  0  0  0  0  0  # atno 10763 bound_to 10752
  153.1238  135.6738  153.9298 H   0  0  0  0  0  0  0  0  0  0  0  0  # atno 10764 bound_to 10752
  153.9022  135.3108  155.3427 H   0  0  0  0  0  0  0  0  0  0  0  0  # atno 10765 bound_to 10752
  141.1665  133.7065  156.7978 H   0  0  0  0  0  0  0  0  0  0  0  0  # atno 11005 bound_to 11000
  144.7912  140.6036  143.6540 LP  0  0  0  0  0  0  0  0  0  0  0  0  # atno 17320 bound_to 7965
  145.4807  139.1495  143.3763 LP  0  0  0  0  0  0  0  0  0  0  0  0  # atno 17321 bound_to 7965
  139.6768  143.9923  152.2786 LP  0  0  0  0  0  0  0  0  0  0  0  0  # atno 17342 bound_to 10162
  139.9540  144.6602  150.8144 LP  0  0  0  0  0  0  0  0  0  0  0  0  # atno 17343 bound_to 10162
  156.5807  130.4303  149.5978 LP  0  0  0  0  0  0  0  0  0  0  0  0  # atno 17370 bound_to 10713
  156.2664  130.6992  151.1776 LP  0  0  0  0  0  0  0  0  0  0  0  0  # atno 17371 bound_to 10713
  140.2278  134.8709  157.3445 LP  0  0  0  0  0  0  0  0  0  0  0  0  # atno 17394 bound_to 11000
  140.1922  134.4358  155.7709 LP  0  0  0  0  0  0  0  0  0  0  0  0  # atno 17395 bound_to 11000

$$$$
