AV-unprocessed.smi:2822|AV-procd|sdf|10880|dock2
  -GOLD-   2272015323D 1   1.00000     0.00000
 Structure written by MMmdl.
 39 41  0  0  0  0  0  0  0  0  1 V2000
  146.7260  142.8894  154.2788 Cl  0  0  0  0  0  0  0  0  0  0  0  0
  147.4640  141.3314  154.1421 C   0  0  0  0  0  0  0  0  0  0  0  0
  146.8173  140.3143  153.4105 C   0  0  0  0  0  0  0  0  0  0  0  0
  147.3230  139.0727  153.2546 N   0  0  0  0  0  0  0  0  0  0  0  0
  148.5108  138.8020  153.8345 C   0  0  0  0  0  0  0  0  0  0  0  0
  149.2400  139.7440  154.5873 C   0  0  0  0  0  0  0  0  0  0  0  0
  148.7086  141.0455  154.7495 C   0  0  0  0  0  0  0  0  0  0  0  0
  149.3695  142.0451  155.4799 N   0  0  0  0  0  0  0  0  0  0  0  0
  150.7701  141.9019  155.8464 C   0  0  0  0  0  0  0  0  0  0  0  0
  150.9452  141.7492  157.3633 C   0  0  2  0  0  0  0  0  0  0  0  0
  151.2160  143.1052  158.0415 C   0  0  0  0  0  0  0  0  0  0  0  0
  151.4666  142.9614  159.4702 N   0  0  0  0  0  0  0  0  0  0  0  0
  151.7334  144.2556  160.0957 C   0  0  0  0  0  0  0  0  0  0  0  0
  151.9671  144.1375  161.6103 C   0  0  0  0  0  0  0  0  0  0  0  0
  153.1165  143.1611  161.8975 C   0  0  0  0  0  0  0  0  0  0  0  0
  152.8582  141.8203  161.1930 C   0  0  0  0  0  0  0  0  0  0  0  0
  152.5777  142.0309  159.6906 C   0  0  1  0  0  0  0  0  0  0  0  0
  152.3114  140.6825  158.9911 C   0  0  0  0  0  0  0  0  0  0  0  0
  152.0617  140.8966  157.6056 O   0  0  0  0  0  0  0  0  0  0  0  0
  145.8654  140.5024  152.9360 H   0  0  0  0  0  0  0  0  0  0  0  0
  148.8942  137.8021  153.6938 H   0  0  0  0  0  0  0  0  0  0  0  0
  150.1854  139.4544  155.0207 H   0  0  0  0  0  0  0  0  0  0  0  0
  148.8255  142.7655  155.9333 H   0  0  0  0  0  0  0  0  0  0  0  0
  151.2036  141.0445  155.3299 H   0  0  0  0  0  0  0  0  0  0  0  0
  151.3060  142.7901  155.5098 H   0  0  0  0  0  0  0  0  0  0  0  0
  150.0447  141.3042  157.7919 H   0  0  0  0  0  0  0  0  0  0  0  0
  152.0722  143.5841  157.5634 H   0  0  0  0  0  0  0  0  0  0  0  0
  150.3624  143.7658  157.8845 H   0  0  0  0  0  0  0  0  0  0  0  0
  152.6048  144.7191  159.6304 H   0  0  0  0  0  0  0  0  0  0  0  0
  150.8941  144.9287  159.9168 H   0  0  0  0  0  0  0  0  0  0  0  0
  152.1903  145.1168  162.0345 H   0  0  0  0  0  0  0  0  0  0  0  0
  151.0554  143.7866  162.0954 H   0  0  0  0  0  0  0  0  0  0  0  0
  154.0556  143.5868  161.5416 H   0  0  0  0  0  0  0  0  0  0  0  0
  153.2279  143.0107  162.9717 H   0  0  0  0  0  0  0  0  0  0  0  0
  153.7170  141.1620  161.3288 H   0  0  0  0  0  0  0  0  0  0  0  0
  152.0077  141.3221  161.6606 H   0  0  0  0  0  0  0  0  0  0  0  0
  153.4774  142.4568  159.2434 H   0  0  0  0  0  0  0  0  0  0  0  0
  153.1737  140.0235  159.0932 H   0  0  0  0  0  0  0  0  0  0  0  0
  151.4612  140.1685  159.4430 H   0  0  0  0  0  0  0  0  0  0  0  0
  1  2  1  0  0  0  0
  2  7  1  0  0  0  0
  2  3  2  0  0  0  0
  3  4  1  0  0  0  0
  3 20  1  0  0  0  0
  4  5  2  0  0  0  0
  5  6  1  0  0  0  0
  5 21  1  0  0  0  0
  6  7  2  0  0  0  0
  6 22  1  0  0  0  0
  7  8  1  0  0  0  0
  8  9  1  0  0  0  0
  8 23  1  0  0  0  0
  9 10  1  0  0  0  0
  9 24  1  0  0  0  0
  9 25  1  0  0  0  0
 10 19  1  0  0  0  0
 10 11  1  0  0  0  0
 10 26  1  0  0  0  0
 11 12  1  0  0  0  0
 11 27  1  0  0  0  0
 11 28  1  0  0  0  0
 12 17  1  0  0  0  0
 12 13  1  0  0  0  0
 13 14  1  0  0  0  0
 13 29  1  0  0  0  0
 13 30  1  0  0  0  0
 14 15  1  0  0  0  0
 14 31  1  0  0  0  0
 14 32  1  0  0  0  0
 15 16  1  0  0  0  0
 15 33  1  0  0  0  0
 15 34  1  0  0  0  0
 16 17  1  0  0  0  0
 16 35  1  0  0  0  0
 16 36  1  0  0  0  0
 17 18  1  0  0  0  0
 17 37  1  0  0  0  0
 18 19  1  0  0  0  0
 18 38  1  0  0  0  0
 18 39  1  0  0  0  0
M  END
> <s_m_source_file>
AV-unprocessed.smi

> <i_m_source_file_index>
2822

> <i_lp_mmshare_version>
43012

> <i_f3d_flags>
0

> <s_epik_input>
Q2xjMVtjSF1uW2NIXVtjSF1jMVtOSF1bQ0gyXVtDQEhdKFtDSDJdMilPW0NIMl1bQ0BASF0oTjIzKVtDSDJdW0NIMl1bQ0gyXVtDSDJdMw==

> <s_epik_cmdline>
J2VwaWtfcHl0aG9uJywgJy1waCcsICc3LjAnLCAnLXRuJywgJzgnLCAnLW1hJywgJzIwMCcsICctbWV0YWxfYmluZGluZycsICctaW1hZScsICc8aW5maWxlLm1hZT4nLCAnLW9tYWUnLCAnPG91dGZpbGUubWFlPic=

> <r_lp_tautomer_probability>
0.999999

> <r_epik_Ionization_Penalty>
2.10064

> <r_epik_Ionization_Penalty_Charging>
0

> <r_epik_Ionization_Penalty_Neutral>
2.10064

> <r_epik_State_Penalty>
2.1757

> <r_epik_Charging_Adjusted_Penalty>
2.1757

> <i_epik_Tot_Q>
0

> <i_epik_Tot_abs_Q>
0

> <r_epik_Metal_State_Penalty>
1.25425

> <b_epik_Metal_Only>
0

> <s_lp_Force_Field>
OPLS_2005

> <r_lp_Energy>
37.6936

> <b_lp_Chiralities_Consistent>
1

> <s_lp_Variant>
AV-unprocessed.smi:2822-21

> <Gold.Version>
5.8.1

> <Gold.Id.Protein>
6NUR|6NUR_protein|mol2

> <Gold.PLP.Fitness>
45.9835

> <Gold.PLP.PLP>
-38.8533

> <Gold.PLP.part.hbond>
-1.0000

> <Gold.PLP.part.metal>
0.0000

> <Gold.PLP.part.buried>
-2.9333

> <Gold.PLP.part.nonpolar>
-35.3447

> <Gold.PLP.part.repulsive>
0.4008

> <Gold.PLP.ligand.clash>
0.0000

> <Gold.PLP.ligand.torsion>
0.5151

> <Gold.PLP.Chemscore.Hbond>
0.7200

> <Gold.PLP.Chemscore.CHOScore>
2.0000

> <Gold.PLP.Chemscore.Metal>
0.0000

> <Gold.Chemscore.Hbonds>
donor molecule, donor type, donor heavy atom, donor atom, acceptor molecule, acceptor atom, score
      L1  H     8    23       P1  8028  0.58
      L1  C     3    20       P1 10175  1.00
      L1  C     5    21       P1  7948  1.00

> <Gold.PLP.Chemscore.Internal.Correction>
0.0004

> <Gold.Rescore>
     Score         DG    S(hbond)    S(metal)    S(lipo)     H(rot)  DE(clash)    DE(int)     intcor
     17.86     -18.94       0.68        0.00     120.95       1.15       0.63       0.44       ----

> <Gold.Chemscore.Fitness>
17.8642

> <Gold.Chemscore.DG>
-18.9380

> <Gold.Chemscore.ZeroCoef>
-5.4800

> <Gold.Chemscore.Hbond>
0.6754

> <Gold.Chemscore.Metal>
0.0000

> <Gold.Chemscore.Lipo>
120.9464

> <Gold.Chemscore.Internal_Hbond>
0.0000

> <Gold.Chemscore.DEClash>
0.6316

> <Gold.Chemscore.DEInternal>
0.4422

> <Gold.Chemscore.Rot>
1.1519

> <Gold.Chemscore.Internal.Correction>
   9.000000E+99

> <Gold.Chemscore.Hbonds>
donor molecule, donor type, donor heavy atom, donor atom, acceptor molecule, acceptor atom, score
      L1  H     8    23       P1  8028  0.57

> <Gold.Chemscore.Hbond.Weighted>
-2.2560

> <Gold.Chemscore.Metal.Weighted>
-0.0000

> <Gold.Chemscore.Lipo.Weighted>
-14.1507

> <Gold.Chemscore.Internal_Hbond.Weighted>
0.0000

> <Gold.Chemscore.DEClash.Weighted>
0.6316

> <Gold.Chemscore.DEInternal.Weighted>
0.4422

> <Gold.Chemscore.Rot.Weighted>
2.9487

> <Gold.Chemscore.Internal.Correction.Weighted>
   9.000000E+99

> <Gold.Protein.RotatedTorsions>
[ 6907 6896 6895 6894 ] final  -65.73 input  -60.11 | X-H torsion
[ 7974 7965 7964 7962 ] final -121.75 input  175.53 | X-H torsion
[ 8008 7997 7996 7995 ] final -105.06 input   59.86 | X-H torsion
[ 10167 10162 10161 10158 ] final  -61.30 input  -65.29 | X-H torsion
[ 10718 10713 10712 10709 ] final   30.32 input   66.30 | X-H torsion
[ 10763 10752 10751 10750 ] final  -88.16 input  -60.55 | X-H torsion
[ 11005 11000 10999 10996 ] final   14.05 input  -57.11 | X-H torsion

> <Gold.Protein.ActiveResidues>
 VAL166  LYS551  ARG553  GLY616  TRP617  ASP618  TYR619  PRO620  LYS621  CYS622 
 ASP623  PHE694  ASN695  SER759  ASP760  ASP761  ALA762  ILE779  LEU786  VAL792 
 PHE793  MET794  SER795  GLU796  ALA797  LYS798  CYS799  TRP800  GLU811  SER814 

> <Gold.Protein.RotatedAtoms>
  150.7506  134.6119  159.6090 H   0  0  0  0  0  0  0  0  0  0  0  0  # atno 6907 bound_to 6896
  152.3451  134.7079  160.0262 H   0  0  0  0  0  0  0  0  0  0  0  0  # atno 6908 bound_to 6896
  151.7519  133.3292  159.3430 H   0  0  0  0  0  0  0  0  0  0  0  0  # atno 6909 bound_to 6896
  145.0369  140.8113  143.4290 H   0  0  0  0  0  0  0  0  0  0  0  0  # atno 7974 bound_to 7965
  154.8943  140.0415  157.1857 H   0  0  0  0  0  0  0  0  0  0  0  0  # atno 8008 bound_to 7997
  154.8508  140.2929  155.5578 H   0  0  0  0  0  0  0  0  0  0  0  0  # atno 8009 bound_to 7997
  156.2996  140.2465  156.3467 H   0  0  0  0  0  0  0  0  0  0  0  0  # atno 8010 bound_to 7997
  140.6015  143.2362  151.5918 H   0  0  0  0  0  0  0  0  0  0  0  0  # atno 10167 bound_to 10162
  157.2581  130.7148  149.6439 H   0  0  0  0  0  0  0  0  0  0  0  0  # atno 10718 bound_to 10713
  154.6415  135.5387  153.7795 H   0  0  0  0  0  0  0  0  0  0  0  0  # atno 10763 bound_to 10752
  153.0336  135.6460  154.1152 H   0  0  0  0  0  0  0  0  0  0  0  0  # atno 10764 bound_to 10752
  154.1076  135.2929  155.3218 H   0  0  0  0  0  0  0  0  0  0  0  0  # atno 10765 bound_to 10752
  140.4739  134.1003  155.7738 H   0  0  0  0  0  0  0  0  0  0  0  0  # atno 11005 bound_to 11000
  145.1698  139.2411  143.5348 LP  0  0  0  0  0  0  0  0  0  0  0  0  # atno 17320 bound_to 7965
  146.3505  140.1446  142.8594 LP  0  0  0  0  0  0  0  0  0  0  0  0  # atno 17321 bound_to 7965
  139.5294  144.2961  152.1112 LP  0  0  0  0  0  0  0  0  0  0  0  0  # atno 17342 bound_to 10162
  140.2142  144.4532  150.6371 LP  0  0  0  0  0  0  0  0  0  0  0  0  # atno 17343 bound_to 10162
  155.9664  130.4406  150.5307 LP  0  0  0  0  0  0  0  0  0  0  0  0  # atno 17370 bound_to 10713
  157.3205  131.0681  151.1935 LP  0  0  0  0  0  0  0  0  0  0  0  0  # atno 17371 bound_to 10713
  141.1564  133.8875  157.1966 LP  0  0  0  0  0  0  0  0  0  0  0  0  # atno 17394 bound_to 11000
  139.9868  135.0079  156.9881 LP  0  0  0  0  0  0  0  0  0  0  0  0  # atno 17395 bound_to 11000

$$$$
