AV-unprocessed.smi:2085|AV-procd|sdf|8517|dock1
  -GOLD-   2272011233D 1   1.00000     0.00000
 Structure written by MMmdl.
 30 31  0  0  0  0  0  0  0  0  1 V2000
  153.1030  138.3913  155.0472 C   0  0  0  0  0  0  0  0  0  0  0  0
  152.6471  139.4737  155.8513 O   0  0  0  0  0  0  0  0  0  0  0  0
  151.4035  140.0150  155.5857 C   0  0  0  0  0  0  0  0  0  0  0  0
  150.7036  139.5353  154.5269 N   0  0  0  0  0  0  0  0  0  0  0  0
  149.4871  140.0582  154.2701 C   0  0  0  0  0  0  0  0  0  0  0  0
  148.9036  141.0718  155.0521 C   0  0  0  0  0  0  0  0  0  0  0  0
  149.6276  141.5715  156.1502 C   0  0  0  0  0  0  0  0  0  0  0  0
  150.9140  141.0459  156.4218 C   0  0  0  0  0  0  0  0  0  0  0  0
  151.7216  141.4678  157.5140 N   0  0  0  0  0  0  0  0  0  0  0  0
  151.3529  142.1345  158.6230 C   0  0  0  0  0  0  0  0  0  0  0  0
  150.2023  142.4953  158.8714 O   0  0  0  0  0  0  0  0  0  0  0  0
  152.4801  142.4505  159.6130 C   0  0  1  0  0  0  0  0  0  0  0  0
  152.6832  143.9553  159.8730 C   0  0  0  0  0  0  0  0  0  0  0  0
  152.2306  144.1388  161.3085 C   0  0  0  0  0  0  0  0  0  0  0  0
  152.5262  142.7714  161.9076 C   0  0  0  0  0  0  0  0  0  0  0  0
  152.1353  141.8813  160.8747 O   0  0  0  0  0  0  0  0  0  0  0  0
  154.0909  138.0810  155.3872 H   0  0  0  0  0  0  0  0  0  0  0  0
  153.1905  138.6814  153.9991 H   0  0  0  0  0  0  0  0  0  0  0  0
  152.4399  137.5288  155.1266 H   0  0  0  0  0  0  0  0  0  0  0  0
  148.9602  139.6515  153.4197 H   0  0  0  0  0  0  0  0  0  0  0  0
  147.9209  141.4539  154.8182 H   0  0  0  0  0  0  0  0  0  0  0  0
  149.1773  142.3331  156.7677 H   0  0  0  0  0  0  0  0  0  0  0  0
  152.7127  141.3080  157.4043 H   0  0  0  0  0  0  0  0  0  0  0  0
  153.4185  142.0100  159.2712 H   0  0  0  0  0  0  0  0  0  0  0  0
  153.7415  144.2027  159.7810 H   0  0  0  0  0  0  0  0  0  0  0  0
  152.1382  144.6060  159.1872 H   0  0  0  0  0  0  0  0  0  0  0  0
  152.7464  144.9514  161.8204 H   0  0  0  0  0  0  0  0  0  0  0  0
  151.1584  144.3369  161.3419 H   0  0  0  0  0  0  0  0  0  0  0  0
  153.5923  142.6549  162.1090 H   0  0  0  0  0  0  0  0  0  0  0  0
  151.9753  142.5846  162.8294 H   0  0  0  0  0  0  0  0  0  0  0  0
  1  2  1  0  0  0  0
  1 17  1  0  0  0  0
  1 18  1  0  0  0  0
  1 19  1  0  0  0  0
  2  3  1  0  0  0  0
  3  8  1  0  0  0  0
  3  4  2  0  0  0  0
  4  5  1  0  0  0  0
  5  6  2  0  0  0  0
  5 20  1  0  0  0  0
  6  7  1  0  0  0  0
  6 21  1  0  0  0  0
  7  8  2  0  0  0  0
  7 22  1  0  0  0  0
  8  9  1  0  0  0  0
  9 10  1  0  0  0  0
  9 23  1  0  0  0  0
 10 11  2  0  0  0  0
 10 12  1  0  0  0  0
 12 16  1  0  0  0  0
 12 13  1  0  0  0  0
 12 24  1  0  0  0  0
 13 14  1  0  0  0  0
 13 25  1  0  0  0  0
 13 26  1  0  0  0  0
 14 15  1  0  0  0  0
 14 27  1  0  0  0  0
 14 28  1  0  0  0  0
 15 16  1  0  0  0  0
 15 29  1  0  0  0  0
 15 30  1  0  0  0  0
M  END
> <s_m_source_file>
AV-unprocessed.smi

> <i_m_source_file_index>
2085

> <i_lp_mmshare_version>
43012

> <i_f3d_flags>
0

> <s_epik_input>
W0NIM11PYzFuW2NIXVtjSF1bY0hdYzFbTkhdQyg9TylbQ0BASF0yW0NIMl1bQ0gyXVtDSDJdTzI=

> <s_epik_cmdline>
J2VwaWtfcHl0aG9uJywgJy1waCcsICc3LjAnLCAnLXRuJywgJzgnLCAnLW1hJywgJzIwMCcsICctbWV0YWxfYmluZGluZycsICctaW1hZScsICc8aW5maWxlLm1hZT4nLCAnLW9tYWUnLCAnPG91dGZpbGUubWFlPic=

> <r_lp_tautomer_probability>
1

> <r_epik_Ionization_Penalty>
2.59253e-05

> <r_epik_Ionization_Penalty_Charging>
0

> <r_epik_Ionization_Penalty_Neutral>
2.59253e-05

> <r_epik_State_Penalty>
-0

> <r_epik_Charging_Adjusted_Penalty>
0

> <i_epik_Tot_Q>
0

> <i_epik_Tot_abs_Q>
0

> <r_epik_Metal_State_Penalty>
-0

> <b_epik_Metal_Only>
0

> <s_lp_Force_Field>
OPLS_2005

> <r_lp_Energy>
23.5272

> <b_lp_Chiralities_Consistent>
1

> <s_lp_Variant>
AV-unprocessed.smi:2085-2

> <Gold.Version>
5.8.1

> <Gold.Id.Protein>
6NUR|6NUR_protein|mol2

> <Gold.PLP.Fitness>
41.6105

> <Gold.PLP.PLP>
-35.7023

> <Gold.PLP.part.hbond>
-3.1850

> <Gold.PLP.part.metal>
0.0000

> <Gold.PLP.part.buried>
-1.4913

> <Gold.PLP.part.nonpolar>
-30.9528

> <Gold.PLP.part.repulsive>
0.2934

> <Gold.PLP.ligand.clash>
0.0000

> <Gold.PLP.ligand.torsion>
0.0955

> <Gold.PLP.Chemscore.Hbond>
1.1550

> <Gold.PLP.Chemscore.CHOScore>
0.8745

> <Gold.PLP.Chemscore.Metal>
0.0000

> <Gold.Chemscore.Hbonds>
donor molecule, donor type, donor heavy atom, donor atom, acceptor molecule, acceptor atom, score
      P1  H  7989  7998       L1     4  0.21
      P1  H  7997  8008       L1     2  0.90
      L1  C     5    20       P1  7957  0.88

> <Gold.PLP.Chemscore.Internal.Correction>
0.0106

> <Gold.Rescore>
     Score         DG    S(hbond)    S(metal)    S(lipo)     H(rot)  DE(clash)    DE(int)     intcor
     12.46     -13.87       0.55        0.00      83.09       1.24       0.04       1.37       ----

> <Gold.Chemscore.Fitness>
12.4622

> <Gold.Chemscore.DG>
-13.8664

> <Gold.Chemscore.ZeroCoef>
-5.4800

> <Gold.Chemscore.Hbond>
0.5493

> <Gold.Chemscore.Metal>
0.0000

> <Gold.Chemscore.Lipo>
83.0864

> <Gold.Chemscore.Internal_Hbond>
0.0000

> <Gold.Chemscore.DEClash>
0.0362

> <Gold.Chemscore.DEInternal>
1.3680

> <Gold.Chemscore.Rot>
1.2381

> <Gold.Chemscore.Internal.Correction>
   9.000000E+99

> <Gold.Chemscore.Hbonds>
donor molecule, donor type, donor heavy atom, donor atom, acceptor molecule, acceptor atom, score
      P1  H  7997  8008       L1     2  0.18

> <Gold.Chemscore.Hbond.Weighted>
-1.8347

> <Gold.Chemscore.Metal.Weighted>
-0.0000

> <Gold.Chemscore.Lipo.Weighted>
-9.7211

> <Gold.Chemscore.Internal_Hbond.Weighted>
0.0000

> <Gold.Chemscore.DEClash.Weighted>
0.0362

> <Gold.Chemscore.DEInternal.Weighted>
1.3680

> <Gold.Chemscore.Rot.Weighted>
3.1694

> <Gold.Chemscore.Internal.Correction.Weighted>
   9.000000E+99

> <Gold.Protein.RotatedTorsions>
[ 6907 6896 6895 6894 ] final   71.16 input  -60.11 | X-H torsion
[ 7974 7965 7964 7962 ] final -173.92 input  175.53 | X-H torsion
[ 8008 7997 7996 7995 ] final  -51.66 input   59.86 | X-H torsion
[ 10167 10162 10161 10158 ] final -129.23 input  -65.29 | X-H torsion
[ 10718 10713 10712 10709 ] final   54.03 input   66.30 | X-H torsion
[ 10763 10752 10751 10750 ] final  -39.40 input  -60.55 | X-H torsion
[ 11005 11000 10999 10996 ] final  164.04 input  -57.11 | X-H torsion

> <Gold.Protein.ActiveResidues>
 VAL166  LYS551  ARG553  GLY616  TRP617  ASP618  TYR619  PRO620  LYS621  CYS622 
 ASP623  PHE694  ASN695  SER759  ASP760  ASP761  ALA762  ILE779  LEU786  VAL792 
 PHE793  MET794  SER795  GLU796  ALA797  LYS798  CYS799  TRP800  GLU811  SER814 

> <Gold.Protein.RotatedAtoms>
  152.4793  134.4762  159.9650 H   0  0  0  0  0  0  0  0  0  0  0  0  # atno 6907 bound_to 6896
  151.4771  133.3549  159.2840 H   0  0  0  0  0  0  0  0  0  0  0  0  # atno 6908 bound_to 6896
  150.8854  134.8277  159.7316 H   0  0  0  0  0  0  0  0  0  0  0  0  # atno 6909 bound_to 6896
  144.7135  140.1549  143.6381 H   0  0  0  0  0  0  0  0  0  0  0  0  # atno 7974 bound_to 7965
  154.4088  140.1242  156.4865 H   0  0  0  0  0  0  0  0  0  0  0  0  # atno 8008 bound_to 7997
  155.7033  140.3494  155.4923 H   0  0  0  0  0  0  0  0  0  0  0  0  # atno 8009 bound_to 7997
  155.9365  140.1079  157.1080 H   0  0  0  0  0  0  0  0  0  0  0  0  # atno 8010 bound_to 7997
  139.9419  143.6153  152.2501 H   0  0  0  0  0  0  0  0  0  0  0  0  # atno 10167 bound_to 10162
  157.5220  130.8572  149.8572 H   0  0  0  0  0  0  0  0  0  0  0  0  # atno 10718 bound_to 10713
  153.9288  135.6774  153.4746 H   0  0  0  0  0  0  0  0  0  0  0  0  # atno 10763 bound_to 10752
  153.0990  135.4837  154.8829 H   0  0  0  0  0  0  0  0  0  0  0  0  # atno 10764 bound_to 10752
  154.7439  135.3167  154.8637 H   0  0  0  0  0  0  0  0  0  0  0  0  # atno 10765 bound_to 10752
  140.2419  134.8044  157.3419 H   0  0  0  0  0  0  0  0  0  0  0  0  # atno 11005 bound_to 11000
  145.9083  139.2471  143.1453 LP  0  0  0  0  0  0  0  0  0  0  0  0  # atno 17320 bound_to 7965
  145.9742  140.8736  143.0147 LP  0  0  0  0  0  0  0  0  0  0  0  0  # atno 17321 bound_to 7965
  139.6697  144.7661  151.1806 LP  0  0  0  0  0  0  0  0  0  0  0  0  # atno 17342 bound_to 10162
  140.7608  143.5883  150.8822 LP  0  0  0  0  0  0  0  0  0  0  0  0  # atno 17343 bound_to 10162
  156.0360  130.3751  150.1558 LP  0  0  0  0  0  0  0  0  0  0  0  0  # atno 17370 bound_to 10713
  156.9746  130.9845  151.3451 LP  0  0  0  0  0  0  0  0  0  0  0  0  # atno 17371 bound_to 10713
  140.1645  134.4687  155.7872 LP  0  0  0  0  0  0  0  0  0  0  0  0  # atno 17394 bound_to 11000
  141.2210  133.6915  156.7601 LP  0  0  0  0  0  0  0  0  0  0  0  0  # atno 17395 bound_to 11000

$$$$
