AV-unprocessed.smi:1535|AV-procd|sdf|6174|dock10
  -GOLD-   22720 6323D 1   1.00000     0.00000
 Structure written by MMmdl.
 47 48  0  0  0  0  0  0  0  0  2 V2000
  151.8905  144.7166  160.6003 C   0  0  0  0  0  0  0  0  0  0  0  0
  151.7973  143.6106  159.5629 C   0  0  0  0  0  0  0  0  0  0  0  0
  150.9595  143.8055  158.4424 C   0  0  0  0  0  0  0  0  0  0  0  0
  150.8958  142.7763  157.5109 C   0  0  0  0  0  0  0  0  0  0  0  0
  150.1793  142.6734  156.3178 N   0  3  0  0  0  0  0  0  0  0  0  0
  150.4411  141.4728  155.7333 C   0  0  0  0  0  0  0  0  0  0  0  0
  151.3006  140.7959  156.5444 N   0  0  0  0  0  0  0  0  0  0  0  0
  151.9186  139.4715  156.3557 C   0  0  0  0  0  0  0  0  0  0  0  0
  151.0792  138.5399  155.4597 C   0  0  2  0  0  0  0  0  0  0  0  0
  151.1577  139.0033  154.1248 O   0  0  0  0  0  0  0  0  0  0  0  0
  149.6037  138.5141  155.9031 C   0  0  0  0  0  0  0  0  0  0  0  0
  149.1260  137.3053  156.5877 N   0  0  0  0  0  0  0  0  0  0  0  0
  149.0665  136.2093  155.6278 C   0  0  0  0  0  0  0  0  0  0  0  0
  147.8237  137.4804  157.2401 C   0  0  0  0  0  0  0  0  0  0  0  0
  147.4500  136.3770  158.2499 C   0  0  2  0  0  0  0  0  0  0  0  0
  145.9928  135.9247  158.0837 C   0  0  0  0  0  0  0  0  0  0  0  0
  147.6953  136.8318  159.6272 C   0  0  0  0  0  0  0  0  0  0  0  0
  147.8896  137.1899  160.7101 N   0  0  0  0  0  0  0  0  0  0  0  0
  151.6261  141.5798  157.6606 C   0  0  0  0  0  0  0  0  0  0  0  0
  152.4595  141.3757  158.7600 C   0  0  0  0  0  0  0  0  0  0  0  0
  152.5378  142.4108  159.7192 C   0  0  0  0  0  0  0  0  0  0  0  0
  153.4335  142.2101  160.9300 C   0  0  0  0  0  0  0  0  0  0  0  0
  151.2588  145.5652  160.3368 H   0  0  0  0  0  0  0  0  0  0  0  0
  152.9158  145.0781  160.6836 H   0  0  0  0  0  0  0  0  0  0  0  0
  151.5701  144.3532  161.5770 H   0  0  0  0  0  0  0  0  0  0  0  0
  150.3938  144.7170  158.3149 H   0  0  0  0  0  0  0  0  0  0  0  0
  150.0359  141.1208  154.7955 H   0  0  0  0  0  0  0  0  0  0  0  0
  152.9023  139.6362  155.9143 H   0  0  0  0  0  0  0  0  0  0  0  0
  152.0803  138.9956  157.3215 H   0  0  0  0  0  0  0  0  0  0  0  0
  151.5039  137.5392  155.5220 H   0  0  0  0  0  0  0  0  0  0  0  0
  150.6858  138.4017  153.5693 H   0  0  0  0  0  0  0  0  0  0  0  0
  149.4222  139.3777  156.5452 H   0  0  0  0  0  0  0  0  0  0  0  0
  148.9897  138.6784  155.0162 H   0  0  0  0  0  0  0  0  0  0  0  0
  148.7807  135.2785  156.1190 H   0  0  0  0  0  0  0  0  0  0  0  0
  150.0394  136.0455  155.1633 H   0  0  0  0  0  0  0  0  0  0  0  0
  148.3421  136.4141  154.8380 H   0  0  0  0  0  0  0  0  0  0  0  0
  147.7880  138.4569  157.7258 H   0  0  0  0  0  0  0  0  0  0  0  0
  147.0296  137.5103  156.4920 H   0  0  0  0  0  0  0  0  0  0  0  0
  148.0837  135.5036  158.1213 H   0  0  0  0  0  0  0  0  0  0  0  0
  145.7415  135.1472  158.8056 H   0  0  0  0  0  0  0  0  0  0  0  0
  145.8179  135.5179  157.0872 H   0  0  0  0  0  0  0  0  0  0  0  0
  145.3004  136.7538  158.2331 H   0  0  0  0  0  0  0  0  0  0  0  0
  153.0277  140.4672  158.8902 H   0  0  0  0  0  0  0  0  0  0  0  0
  153.9500  141.2504  160.8905 H   0  0  0  0  0  0  0  0  0  0  0  0
  152.8456  142.2341  161.8478 H   0  0  0  0  0  0  0  0  0  0  0  0
  154.1907  142.9928  160.9822 H   0  0  0  0  0  0  0  0  0  0  0  0
  149.5610  143.3718  155.9257 H   0  0  0  0  0  0  0  0  0  0  0  0
  1  2  1  0  0  0  0
  1 23  1  0  0  0  0
  1 24  1  0  0  0  0
  1 25  1  0  0  0  0
  2 21  1  0  0  0  0
  2  3  2  0  0  0  0
  3  4  1  0  0  0  0
  3 26  1  0  0  0  0
  4 19  2  0  0  0  0
  4  5  1  0  0  0  0
  5  6  2  0  0  0  0
  5 47  1  0  0  0  0
  6  7  1  0  0  0  0
  6 27  1  0  0  0  0
  7  8  1  0  0  0  0
  7 19  1  0  0  0  0
  8  9  1  0  0  0  0
  8 28  1  0  0  0  0
  8 29  1  0  0  0  0
  9 10  1  0  0  0  0
  9 11  1  0  0  0  0
  9 30  1  0  0  0  0
 10 31  1  0  0  0  0
 11 12  1  0  0  0  0
 11 32  1  0  0  0  0
 11 33  1  0  0  0  0
 12 13  1  0  0  0  0
 12 14  1  0  0  0  0
 13 34  1  0  0  0  0
 13 35  1  0  0  0  0
 13 36  1  0  0  0  0
 14 15  1  0  0  0  0
 14 37  1  0  0  0  0
 14 38  1  0  0  0  0
 15 16  1  0  0  0  0
 15 17  1  0  0  0  0
 15 39  1  0  0  0  0
 16 40  1  0  0  0  0
 16 41  1  0  0  0  0
 16 42  1  0  0  0  0
 17 18  3  0  0  0  0
 19 20  1  0  0  0  0
 20 21  2  0  0  0  0
 20 43  1  0  0  0  0
 21 22  1  0  0  0  0
 22 44  1  0  0  0  0
 22 45  1  0  0  0  0
 22 46  1  0  0  0  0
M  CHG  1   5   1
M  END
> <s_m_source_file>
AV-unprocessed.smi

> <i_m_source_file_index>
1535

> <i_lp_mmshare_version>
43012

> <i_f3d_flags>
0

> <s_epik_input>
W0NIM11jKFtjSF0xKWMoW0NIM10pW2NIXWMoYzEyKW4oW2NIXW4yKVtDSDJdW0NASF0oW09IXSlbQ0gyXU4oW0NIM10pW0NIMl1bQ0BIXShbQ0gzXSlDI04=

> <s_epik_cmdline>
J2VwaWtfcHl0aG9uJywgJy1waCcsICc3LjAnLCAnLXRuJywgJzgnLCAnLW1hJywgJzIwMCcsICctbWV0YWxfYmluZGluZycsICctaW1hZScsICc8aW5maWxlLm1hZT4nLCAnLW9tYWUnLCAnPG91dGZpbGUubWFlPic=

> <r_epik_Ionization_Penalty>
1.22846

> <r_epik_Ionization_Penalty_Charging>
1.21333

> <r_epik_Ionization_Penalty_Neutral>
0.0151341

> <r_epik_State_Penalty>
1.27012

> <r_epik_Charging_Adjusted_Penalty>
2.48344

> <i_epik_Tot_Q>
1

> <i_epik_Tot_abs_Q>
1

> <r_epik_Metal_State_Penalty>
5.28751

> <b_epik_Metal_Only>
0

> <s_lp_Force_Field>
OPLS_2005

> <r_lp_Energy>
32.9236

> <b_lp_Chiralities_Consistent>
1

> <s_lp_Variant>
AV-unprocessed.smi:1535-5

> <Gold.Version>
5.8.1

> <Gold.Id.Protein>
6NUR|6NUR_protein|mol2

> <Gold.PLP.Fitness>
48.8702

> <Gold.PLP.PLP>
-38.4478

> <Gold.PLP.part.hbond>
-3.9213

> <Gold.PLP.part.metal>
0.0000

> <Gold.PLP.part.buried>
-4.0641

> <Gold.PLP.part.nonpolar>
-30.9519

> <Gold.PLP.part.repulsive>
0.1004

> <Gold.PLP.ligand.clash>
0.0000

> <Gold.PLP.ligand.torsion>
1.8310

> <Gold.PLP.Chemscore.Hbond>
4.6480

> <Gold.PLP.Chemscore.CHOScore>
0.0000

> <Gold.PLP.Chemscore.Metal>
0.0000

> <Gold.Chemscore.Hbonds>
donor molecule, donor type, donor heavy atom, donor atom, acceptor molecule, acceptor atom, score
      L1  H     5    47       P1  8028  2.00
      P1  H  6931  6943       L1    18  0.83
      P1  H  6934  6947       L1    18  0.82
      P1  H  7989  7998       L1    10  1.00

> <Gold.PLP.Chemscore.Internal.Correction>
0.1403

> <Gold.Rescore>
     Score         DG    S(hbond)    S(metal)    S(lipo)     H(rot)  DE(clash)    DE(int)     intcor
     19.13     -22.15       3.35        0.00     103.49       2.59       0.13       2.88       ----

> <Gold.Chemscore.Fitness>
19.1332

> <Gold.Chemscore.DG>
-22.1530

> <Gold.Chemscore.ZeroCoef>
-5.4800

> <Gold.Chemscore.Hbond>
3.3531

> <Gold.Chemscore.Metal>
0.0000

> <Gold.Chemscore.Lipo>
103.4926

> <Gold.Chemscore.Internal_Hbond>
0.0000

> <Gold.Chemscore.DEClash>
0.1348

> <Gold.Chemscore.DEInternal>
2.8850

> <Gold.Chemscore.Rot>
2.5918

> <Gold.Chemscore.Internal.Correction>
   9.000000E+99

> <Gold.Chemscore.Hbonds>
donor molecule, donor type, donor heavy atom, donor atom, acceptor molecule, acceptor atom, score
      L1  H     5    47       P1  8028  0.93
      P1  H  6931  6943       L1    18  0.80
      P1  H  6934  6947       L1    18  0.56
      P1  H  7989  7998       L1    10  0.92

> <Gold.Chemscore.Hbond.Weighted>
-11.1994

> <Gold.Chemscore.Metal.Weighted>
-0.0000

> <Gold.Chemscore.Lipo.Weighted>
-12.1086

> <Gold.Chemscore.Internal_Hbond.Weighted>
0.0000

> <Gold.Chemscore.DEClash.Weighted>
0.1348

> <Gold.Chemscore.DEInternal.Weighted>
2.8850

> <Gold.Chemscore.Rot.Weighted>
6.6351

> <Gold.Chemscore.Internal.Correction.Weighted>
   9.000000E+99

> <Gold.Protein.RotatedTorsions>
[ 6907 6896 6895 6894 ] final  103.67 input  -60.11 | X-H torsion
[ 7974 7965 7964 7962 ] final -129.84 input  175.53 | X-H torsion
[ 8008 7997 7996 7995 ] final  177.19 input   59.86 | X-H torsion
[ 10167 10162 10161 10158 ] final  162.21 input  -65.29 | X-H torsion
[ 10718 10713 10712 10709 ] final  -26.89 input   66.30 | X-H torsion
[ 10763 10752 10751 10750 ] final  151.31 input  -60.55 | X-H torsion
[ 11005 11000 10999 10996 ] final -125.13 input  -57.11 | X-H torsion

> <Gold.Protein.ActiveResidues>
 VAL166  LYS551  ARG553  GLY616  TRP617  ASP618  TYR619  PRO620  LYS621  CYS622 
 ASP623  PHE694  ASN695  SER759  ASP760  ASP761  ALA762  ILE779  LEU786  VAL792 
 PHE793  MET794  SER795  GLU796  ALA797  LYS798  CYS799  TRP800  GLU811  SER814 

> <Gold.Protein.RotatedAtoms>
  152.5288  133.9791  159.7797 H   0  0  0  0  0  0  0  0  0  0  0  0  # atno 6907 bound_to 6896
  151.0048  133.6013  159.2697 H   0  0  0  0  0  0  0  0  0  0  0  0  # atno 6908 bound_to 6896
  151.3109  135.0800  159.9325 H   0  0  0  0  0  0  0  0  0  0  0  0  # atno 6909 bound_to 6896
  144.9532  140.7367  143.4774 H   0  0  0  0  0  0  0  0  0  0  0  0  # atno 7974 bound_to 7965
  156.0683  140.1364  156.9859 H   0  0  0  0  0  0  0  0  0  0  0  0  # atno 8008 bound_to 7997
  154.4518  140.0977  156.6692 H   0  0  0  0  0  0  0  0  0  0  0  0  # atno 8009 bound_to 7997
  155.5269  140.3457  155.4420 H   0  0  0  0  0  0  0  0  0  0  0  0  # atno 8010 bound_to 7997
  139.4858  144.4460  151.8891 H   0  0  0  0  0  0  0  0  0  0  0  0  # atno 10167 bound_to 10162
  156.4453  130.4472  149.7025 H   0  0  0  0  0  0  0  0  0  0  0  0  # atno 10718 bound_to 10713
  154.1017  135.2845  155.3250 H   0  0  0  0  0  0  0  0  0  0  0  0  # atno 10763 bound_to 10752
  154.6551  135.5355  153.7952 H   0  0  0  0  0  0  0  0  0  0  0  0  # atno 10764 bound_to 10752
  153.0376  135.6520  154.1180 H   0  0  0  0  0  0  0  0  0  0  0  0  # atno 10765 bound_to 10752
  140.9786  134.0705  157.3790 H   0  0  0  0  0  0  0  0  0  0  0  0  # atno 11005 bound_to 11000
  145.2812  139.1918  143.4790 LP  0  0  0  0  0  0  0  0  0  0  0  0  # atno 17320 bound_to 7965
  146.3328  140.2774  142.8608 LP  0  0  0  0  0  0  0  0  0  0  0  0  # atno 17321 bound_to 7965
  140.3914  144.2610  150.5899 LP  0  0  0  0  0  0  0  0  0  0  0  0  # atno 17342 bound_to 10162
  140.5142  143.2282  151.8489 LP  0  0  0  0  0  0  0  0  0  0  0  0  # atno 17343 bound_to 10162
  156.3874  130.7609  151.2608 LP  0  0  0  0  0  0  0  0  0  0  0  0  # atno 17370 bound_to 10713
  157.7505  131.0278  150.4021 LP  0  0  0  0  0  0  0  0  0  0  0  0  # atno 17371 bound_to 10713
  139.8941  135.0134  156.6932 LP  0  0  0  0  0  0  0  0  0  0  0  0  # atno 17394 bound_to 11000
  140.7220  133.9132  155.8153 LP  0  0  0  0  0  0  0  0  0  0  0  0  # atno 17395 bound_to 11000

$$$$
