AV-unprocessed.smi:1189|AV-procd|sdf|4979|dock2
  -GOLD-   22720 3573D 1   1.00000     0.00000
 Structure written by MMmdl.
 33 34  0  0  0  0  0  0  0  0  1 V2000
  151.5298  139.8538  158.8470 O   0  0  0  0  0  0  0  0  0  0  0  0
  152.7026  139.4810  158.9025 C   0  0  0  0  0  0  0  0  0  0  0  0
  153.7268  140.2283  159.7653 C   0  0  0  0  0  0  0  0  0  0  0  0
  153.2829  141.5640  160.1286 N   0  0  0  0  0  0  0  0  0  0  0  0
  153.3146  142.1703  161.3662 C   0  0  0  0  0  0  0  0  0  0  0  0
  152.7989  143.4253  161.2158 C   0  0  0  0  0  0  0  0  0  0  0  0
  152.4755  143.5041  159.8299 C   0  0  0  0  0  0  0  0  0  0  0  0
  151.8758  144.6616  159.0754 C   0  0  0  0  0  0  0  0  0  0  0  0
  152.6498  144.9903  158.0409 F   0  0  0  0  0  0  0  0  0  0  0  0
  150.6679  144.3307  158.6186 F   0  0  0  0  0  0  0  0  0  0  0  0
  151.7625  145.7190  159.8791 F   0  0  0  0  0  0  0  0  0  0  0  0
  152.7654  142.3811  159.1860 N   0  0  0  0  0  0  0  0  0  0  0  0
  153.1710  138.4247  158.2196 N   0  0  0  0  0  0  0  0  0  0  0  0
  152.3840  137.5669  157.3388 C   0  0  0  0  0  0  0  0  0  0  0  0
  152.1223  138.2260  155.9711 C   0  0  1  0  0  0  0  0  0  0  0  0
  151.0391  137.5416  155.1623 C   0  0  0  0  0  0  0  0  0  0  0  0
  150.6658  138.6170  154.1453 C   0  0  0  0  0  0  0  0  0  0  0  0
  150.9278  139.8666  154.7777 O   0  0  0  0  0  0  0  0  0  0  0  0
  151.5781  139.6545  156.0263 C   0  0  0  0  0  0  0  0  0  0  0  0
  153.9357  139.6637  160.6757 H   0  0  0  0  0  0  0  0  0  0  0  0
  154.6650  140.3099  159.2157 H   0  0  0  0  0  0  0  0  0  0  0  0
  153.6998  141.6647  162.2394 H   0  0  0  0  0  0  0  0  0  0  0  0
  152.6739  144.1772  161.9806 H   0  0  0  0  0  0  0  0  0  0  0  0
  154.1481  138.1923  158.3238 H   0  0  0  0  0  0  0  0  0  0  0  0
  152.9450  136.6437  157.1931 H   0  0  0  0  0  0  0  0  0  0  0  0
  151.4448  137.2785  157.8145 H   0  0  0  0  0  0  0  0  0  0  0  0
  153.0428  138.2242  155.3846 H   0  0  0  0  0  0  0  0  0  0  0  0
  151.3730  136.6148  154.6949 H   0  0  0  0  0  0  0  0  0  0  0  0
  150.1796  137.3140  155.7948 H   0  0  0  0  0  0  0  0  0  0  0  0
  151.2963  138.5389  153.2590 H   0  0  0  0  0  0  0  0  0  0  0  0
  149.6255  138.5424  153.8281 H   0  0  0  0  0  0  0  0  0  0  0  0
  150.8371  139.7552  156.8207 H   0  0  0  0  0  0  0  0  0  0  0  0
  152.3599  140.3951  156.1963 H   0  0  0  0  0  0  0  0  0  0  0  0
  1  2  2  0  0  0  0
  2  3  1  0  0  0  0
  2 13  1  0  0  0  0
  3  4  1  0  0  0  0
  3 20  1  0  0  0  0
  3 21  1  0  0  0  0
  4 12  1  0  0  0  0
  4  5  1  0  0  0  0
  5  6  2  0  0  0  0
  5 22  1  0  0  0  0
  6  7  1  0  0  0  0
  6 23  1  0  0  0  0
  7  8  1  0  0  0  0
  7 12  2  0  0  0  0
  8  9  1  0  0  0  0
  8 10  1  0  0  0  0
  8 11  1  0  0  0  0
 13 14  1  0  0  0  0
 13 24  1  0  0  0  0
 14 15  1  0  0  0  0
 14 25  1  0  0  0  0
 14 26  1  0  0  0  0
 15 19  1  0  0  0  0
 15 16  1  0  0  0  0
 15 27  1  0  0  0  0
 16 17  1  0  0  0  0
 16 28  1  0  0  0  0
 16 29  1  0  0  0  0
 17 18  1  0  0  0  0
 17 30  1  0  0  0  0
 17 31  1  0  0  0  0
 18 19  1  0  0  0  0
 19 32  1  0  0  0  0
 19 33  1  0  0  0  0
M  END
> <s_m_source_file>
AV-unprocessed.smi

> <i_m_source_file_index>
1189

> <i_lp_mmshare_version>
43012

> <i_f3d_flags>
0

> <s_epik_input>
W0NIMl0xT1tDSDJdW0NIMl1bQ0BIXTFbQ0gyXVtOSF1DKD1PKVtDSDJdbjJbY0hdW2NIXWMobjIpQyhGKShGKUY=

> <s_epik_cmdline>
J2VwaWtfcHl0aG9uJywgJy1waCcsICc3LjAnLCAnLXRuJywgJzgnLCAnLW1hJywgJzIwMCcsICctbWV0YWxfYmluZGluZycsICctaW1hZScsICc8aW5maWxlLm1hZT4nLCAnLW9tYWUnLCAnPG91dGZpbGUubWFlPic=

> <r_lp_tautomer_probability>
1

> <r_epik_Ionization_Penalty>
1.26564e-07

> <r_epik_Ionization_Penalty_Charging>
0

> <r_epik_Ionization_Penalty_Neutral>
1.26564e-07

> <r_epik_State_Penalty>
-0

> <r_epik_Charging_Adjusted_Penalty>
0

> <i_epik_Tot_Q>
0

> <i_epik_Tot_abs_Q>
0

> <r_epik_Metal_State_Penalty>
-0

> <b_epik_Metal_Only>
0

> <s_lp_Force_Field>
OPLS_2005

> <r_lp_Energy>
22.0534

> <b_lp_Chiralities_Consistent>
1

> <s_lp_Variant>
AV-unprocessed.smi:1189-2

> <Gold.Version>
5.8.1

> <Gold.Id.Protein>
6NUR|6NUR_protein|mol2

> <Gold.PLP.Fitness>
49.3211

> <Gold.PLP.PLP>
-47.5776

> <Gold.PLP.part.hbond>
-1.0000

> <Gold.PLP.part.metal>
0.0000

> <Gold.PLP.part.buried>
-8.0162

> <Gold.PLP.part.nonpolar>
-38.9004

> <Gold.PLP.part.repulsive>
0.1578

> <Gold.PLP.ligand.clash>
0.0000

> <Gold.PLP.ligand.torsion>
0.6580

> <Gold.PLP.Chemscore.Hbond>
1.0000

> <Gold.PLP.Chemscore.CHOScore>
0.0000

> <Gold.PLP.Chemscore.Metal>
0.0000

> <Gold.Chemscore.Hbonds>
donor molecule, donor type, donor heavy atom, donor atom, acceptor molecule, acceptor atom, score
      P1  H  7989  7998       L1    18  1.00

> <Gold.PLP.Chemscore.Internal.Correction>
0.0594

> <Gold.Rescore>
     Score         DG    S(hbond)    S(metal)    S(lipo)     H(rot)  DE(clash)    DE(int)     intcor
     11.32     -14.38       0.98        0.00      89.59       1.89       0.06       3.00       ----

> <Gold.Chemscore.Fitness>
11.3213

> <Gold.Chemscore.DG>
-14.3787

> <Gold.Chemscore.ZeroCoef>
-5.4800

> <Gold.Chemscore.Hbond>
0.9767

> <Gold.Chemscore.Metal>
0.0000

> <Gold.Chemscore.Lipo>
89.5900

> <Gold.Chemscore.Internal_Hbond>
0.0000

> <Gold.Chemscore.DEClash>
0.0563

> <Gold.Chemscore.DEInternal>
3.0011

> <Gold.Chemscore.Rot>
1.8928

> <Gold.Chemscore.Internal.Correction>
   9.000000E+99

> <Gold.Chemscore.Hbonds>
donor molecule, donor type, donor heavy atom, donor atom, acceptor molecule, acceptor atom, score
      P1  H  7989  7998       L1    18  0.44

> <Gold.Chemscore.Hbond.Weighted>
-3.2621

> <Gold.Chemscore.Metal.Weighted>
-0.0000

> <Gold.Chemscore.Lipo.Weighted>
-10.4820

> <Gold.Chemscore.Internal_Hbond.Weighted>
0.0000

> <Gold.Chemscore.DEClash.Weighted>
0.0563

> <Gold.Chemscore.DEInternal.Weighted>
3.0011

> <Gold.Chemscore.Rot.Weighted>
4.8455

> <Gold.Chemscore.Internal.Correction.Weighted>
   9.000000E+99

> <Gold.Protein.RotatedTorsions>
[ 6907 6896 6895 6894 ] final  168.55 input  -60.11 | X-H torsion
[ 7974 7965 7964 7962 ] final   -9.03 input  175.53 | X-H torsion
[ 8008 7997 7996 7995 ] final  147.44 input   59.86 | X-H torsion
[ 10167 10162 10161 10158 ] final  132.61 input  -65.29 | X-H torsion
[ 10718 10713 10712 10709 ] final -168.37 input   66.30 | X-H torsion
[ 10763 10752 10751 10750 ] final -109.77 input  -60.55 | X-H torsion
[ 11005 11000 10999 10996 ] final  165.36 input  -57.11 | X-H torsion

> <Gold.Protein.ActiveResidues>
 VAL166  LYS551  ARG553  GLY616  TRP617  ASP618  TYR619  PRO620  LYS621  CYS622 
 ASP623  PHE694  ASN695  SER759  ASP760  ASP761  ALA762  ILE779  LEU786  VAL792 
 PHE793  MET794  SER795  GLU796  ALA797  LYS798  CYS799  TRP800  GLU811  SER814 

> <Gold.Protein.RotatedAtoms>
  151.8458  133.3431  159.3657 H   0  0  0  0  0  0  0  0  0  0  0  0  # atno 6907 bound_to 6896
  150.7221  134.5347  159.5727 H   0  0  0  0  0  0  0  0  0  0  0  0  # atno 6908 bound_to 6896
  152.2830  134.7808  160.0444 H   0  0  0  0  0  0  0  0  0  0  0  0  # atno 6909 bound_to 6896
  146.2263  140.2555  142.8349 H   0  0  0  0  0  0  0  0  0  0  0  0  # atno 7974 bound_to 7965
  156.2824  140.2155  156.5537 H   0  0  0  0  0  0  0  0  0  0  0  0  # atno 8008 bound_to 7997
  154.7270  140.0498  157.0714 H   0  0  0  0  0  0  0  0  0  0  0  0  # atno 8009 bound_to 7997
  155.0404  140.3145  155.4730 H   0  0  0  0  0  0  0  0  0  0  0  0  # atno 8010 bound_to 7997
  139.5332  144.6654  151.4877 H   0  0  0  0  0  0  0  0  0  0  0  0  # atno 10167 bound_to 10162
  156.6959  130.9177  151.3074 H   0  0  0  0  0  0  0  0  0  0  0  0  # atno 10718 bound_to 10713
  154.8211  135.4589  154.0782 H   0  0  0  0  0  0  0  0  0  0  0  0  # atno 10763 bound_to 10752
  153.2135  135.6885  153.8092 H   0  0  0  0  0  0  0  0  0  0  0  0  # atno 10764 bound_to 10752
  153.7534  135.3294  155.3302 H   0  0  0  0  0  0  0  0  0  0  0  0  # atno 10765 bound_to 10752
  140.2554  134.7944  157.3540 H   0  0  0  0  0  0  0  0  0  0  0  0  # atno 11005 bound_to 11000
  144.9379  140.8046  143.5649 LP  0  0  0  0  0  0  0  0  0  0  0  0  # atno 17320 bound_to 7965
  145.2505  139.2034  143.4945 LP  0  0  0  0  0  0  0  0  0  0  0  0  # atno 17321 bound_to 7965
  140.6523  143.8671  150.6798 LP  0  0  0  0  0  0  0  0  0  0  0  0  # atno 17342 bound_to 10162
  140.2040  143.3937  152.1770 LP  0  0  0  0  0  0  0  0  0  0  0  0  # atno 17343 bound_to 10162
  157.6991  130.9314  150.0733 LP  0  0  0  0  0  0  0  0  0  0  0  0  # atno 17370 bound_to 10713
  156.1764  130.3648  149.9095 LP  0  0  0  0  0  0  0  0  0  0  0  0  # atno 17371 bound_to 10713
  140.1517  134.4841  155.7956 LP  0  0  0  0  0  0  0  0  0  0  0  0  # atno 17394 bound_to 11000
  141.2197  133.6865  156.7390 LP  0  0  0  0  0  0  0  0  0  0  0  0  # atno 17395 bound_to 11000

$$$$
