AV-unprocessed.smi:526|AV-procd|sdf|2811|dock9
  -GOLD-   2262023293D 1   1.00000     0.00000
 Structure written by MMmdl.
 30 30  0  0  0  0  0  0  0  0  2 V2000
  152.5410  143.6190  161.5711 C   0  0  0  0  0  0  0  0  0  0  0  0
  152.2534  143.0789  160.3752 C   0  0  0  0  0  0  0  0  0  0  0  0
  153.2849  142.3094  159.5719 C   0  0  0  0  0  0  0  0  0  0  0  0
  150.8776  143.2010  159.7469 C   0  0  0  0  0  0  0  0  0  0  0  0
  150.9464  143.7824  158.0282 S   0  0  0  0  0  0  0  0  0  0  0  0
  151.0478  142.2099  157.1256 C   0  0  0  0  0  0  0  0  0  0  0  0
  151.7172  141.1408  157.4165 N   0  0  0  0  0  0  0  0  0  0  0  0
  151.6518  140.0221  156.5764 C   0  0  0  0  0  0  0  0  0  0  0  0
  152.4704  138.8207  157.0159 C   0  0  0  0  0  0  0  0  0  0  0  0
  150.8959  140.0275  155.4423 C   0  0  0  0  0  0  0  0  0  0  0  0
  150.7954  138.8244  154.5025 C   0  0  0  0  0  0  0  0  0  0  0  0
  150.4483  137.4989  155.1911 C   0  0  0  0  0  0  0  0  0  0  0  0
  149.3723  137.4669  155.8268 O   0  0  0  0  0  0  0  0  0  0  0  0
  151.2497  136.5439  155.0820 O   0  5  0  0  0  0  0  0  0  0  0  0
  150.1354  141.2407  155.0978 C   0  0  0  0  0  0  0  0  0  0  0  0
  149.4247  141.3628  154.1012 O   0  0  0  0  0  0  0  0  0  0  0  0
  150.2621  142.2622  155.9736 N   0  0  0  0  0  0  0  0  0  0  0  0
  149.7535  143.1113  155.7757 H   0  0  0  0  0  0  0  0  0  0  0  0
  153.5247  143.5245  162.0072 H   0  0  0  0  0  0  0  0  0  0  0  0
  151.7970  144.1637  162.1337 H   0  0  0  0  0  0  0  0  0  0  0  0
  153.4332  142.7786  158.5990 H   0  0  0  0  0  0  0  0  0  0  0  0
  152.9592  141.2817  159.4115 H   0  0  0  0  0  0  0  0  0  0  0  0
  154.2474  142.2816  160.0842 H   0  0  0  0  0  0  0  0  0  0  0  0
  150.3748  142.2332  159.7654 H   0  0  0  0  0  0  0  0  0  0  0  0
  150.2713  143.8865  160.3400 H   0  0  0  0  0  0  0  0  0  0  0  0
  153.2483  138.6002  156.2847 H   0  0  0  0  0  0  0  0  0  0  0  0
  151.8347  137.9415  157.1231 H   0  0  0  0  0  0  0  0  0  0  0  0
  152.9548  139.0006  157.9764 H   0  0  0  0  0  0  0  0  0  0  0  0
  150.0624  139.0087  153.7165 H   0  0  0  0  0  0  0  0  0  0  0  0
  151.7446  138.6997  153.9817 H   0  0  0  0  0  0  0  0  0  0  0  0
  1  2  2  0  0  0  0
  1 19  1  0  0  0  0
  1 20  1  0  0  0  0
  2  3  1  0  0  0  0
  2  4  1  0  0  0  0
  3 21  1  0  0  0  0
  3 22  1  0  0  0  0
  3 23  1  0  0  0  0
  4  5  1  0  0  0  0
  4 24  1  0  0  0  0
  4 25  1  0  0  0  0
  5  6  1  0  0  0  0
  6 17  1  0  0  0  0
  6  7  2  0  0  0  0
  7  8  1  0  0  0  0
  8  9  1  0  0  0  0
  8 10  2  0  0  0  0
  9 26  1  0  0  0  0
  9 27  1  0  0  0  0
  9 28  1  0  0  0  0
 10 11  1  0  0  0  0
 10 15  1  0  0  0  0
 11 12  1  0  0  0  0
 11 29  1  0  0  0  0
 11 30  1  0  0  0  0
 12 13  2  0  0  0  0
 12 14  1  0  0  0  0
 15 16  2  0  0  0  0
 15 17  1  0  0  0  0
 17 18  1  0  0  0  0
M  CHG  1  14  -1
M  END
> <s_m_source_file>
AV-unprocessed.smi

> <i_m_source_file_index>
526

> <i_lp_mmshare_version>
43012

> <i_f3d_flags>
0

> <s_epik_input>
W0NIMl09QyhbQ0gzXSlbQ0gyXVNjMW5jKFtDSDNdKWMoYyg9TylbbkhdMSlbQ0gyXUMoPU8pW09IXQ==

> <s_epik_cmdline>
J2VwaWtfcHl0aG9uJywgJy1waCcsICc3LjAnLCAnLXRuJywgJzgnLCAnLW1hJywgJzIwMCcsICctbWV0YWxfYmluZGluZycsICctaW1hZScsICc8aW5maWxlLm1hZT4nLCAnLW9tYWUnLCAnPG91dGZpbGUubWFlPic=

> <r_lp_tautomer_probability>
0.660323

> <r_epik_Ionization_Penalty>
0.000759783

> <r_epik_Ionization_Penalty_Charging>
0.000714454

> <r_epik_Ionization_Penalty_Neutral>
4.53284e-05

> <r_epik_State_Penalty>
0.230805

> <r_epik_Charging_Adjusted_Penalty>
0.231519

> <i_epik_Tot_Q>
-1

> <i_epik_Tot_abs_Q>
1

> <r_epik_Metal_State_Penalty>
0.34438

> <b_epik_Metal_Only>
0

> <s_lp_Force_Field>
OPLS_2005

> <r_lp_Energy>
1.72321

> <b_lp_Chiralities_Consistent>
1

> <s_lp_Variant>
AV-unprocessed.smi:526-1

> <Gold.Version>
5.8.1

> <Gold.Id.Protein>
6NUR|6NUR_protein|mol2

> <Gold.PLP.Fitness>
41.6519

> <Gold.PLP.PLP>
-31.7803

> <Gold.PLP.part.hbond>
-4.0000

> <Gold.PLP.part.metal>
0.0000

> <Gold.PLP.part.buried>
1.4202

> <Gold.PLP.part.nonpolar>
-27.6251

> <Gold.PLP.part.repulsive>
0.5191

> <Gold.PLP.ligand.clash>
0.0000

> <Gold.PLP.ligand.torsion>
0.6469

> <Gold.PLP.Chemscore.Hbond>
3.7137

> <Gold.PLP.Chemscore.CHOScore>
0.0000

> <Gold.PLP.Chemscore.Metal>
0.0000

> <Gold.Chemscore.Hbonds>
donor molecule, donor type, donor heavy atom, donor atom, acceptor molecule, acceptor atom, score
      L1  H    17    18       P1  8028  1.00
      P1  H  8011  8017       L1    16  0.62
      P1  H 10752 10764       L1    14  2.00

> <Gold.PLP.Chemscore.Internal.Correction>
0.0243

> <Gold.Rescore>
     Score         DG    S(hbond)    S(metal)    S(lipo)     H(rot)  DE(clash)    DE(int)     intcor
     15.80     -18.15       2.76        0.00      80.78       2.34       1.77       0.58       ----

> <Gold.Chemscore.Fitness>
15.7998

> <Gold.Chemscore.DG>
-18.1491

> <Gold.Chemscore.ZeroCoef>
-5.4800

> <Gold.Chemscore.Hbond>
2.7585

> <Gold.Chemscore.Metal>
0.0000

> <Gold.Chemscore.Lipo>
80.7799

> <Gold.Chemscore.Internal_Hbond>
0.0000

> <Gold.Chemscore.DEClash>
1.7708

> <Gold.Chemscore.DEInternal>
0.5785

> <Gold.Chemscore.Rot>
2.3420

> <Gold.Chemscore.Internal.Correction>
   9.000000E+99

> <Gold.Chemscore.Hbonds>
donor molecule, donor type, donor heavy atom, donor atom, acceptor molecule, acceptor atom, score
      L1  H    17    18       P1  8028  1.00
      P1  H  8011  8017       L1    16  0.60
      P1  H 10752 10764       L1    14  0.97

> <Gold.Chemscore.Hbond.Weighted>
-9.2134

> <Gold.Chemscore.Metal.Weighted>
-0.0000

> <Gold.Chemscore.Lipo.Weighted>
-9.4512

> <Gold.Chemscore.Internal_Hbond.Weighted>
0.0000

> <Gold.Chemscore.DEClash.Weighted>
1.7708

> <Gold.Chemscore.DEInternal.Weighted>
0.5785

> <Gold.Chemscore.Rot.Weighted>
5.9955

> <Gold.Chemscore.Internal.Correction.Weighted>
   9.000000E+99

> <Gold.Protein.RotatedTorsions>
[ 6907 6896 6895 6894 ] final  -53.20 input  -60.11 | X-H torsion
[ 7974 7965 7964 7962 ] final  159.19 input  175.53 | X-H torsion
[ 8008 7997 7996 7995 ] final   48.61 input   59.86 | X-H torsion
[ 10167 10162 10161 10158 ] final   12.55 input  -65.29 | X-H torsion
[ 10718 10713 10712 10709 ] final   83.78 input   66.30 | X-H torsion
[ 10763 10752 10751 10750 ] final  -56.90 input  -60.55 | X-H torsion
[ 11005 11000 10999 10996 ] final -139.75 input  -57.11 | X-H torsion

> <Gold.Protein.ActiveResidues>
 VAL166  LYS551  ARG553  GLY616  TRP617  ASP618  TYR619  PRO620  LYS621  CYS622 
 ASP623  PHE694  ASN695  SER759  ASP760  ASP761  ALA762  ILE779  LEU786  VAL792 
 PHE793  MET794  SER795  GLU796  ALA797  LYS798  CYS799  TRP800  GLU811  SER814 

> <Gold.Protein.RotatedAtoms>
  150.8449  134.7754  159.6961 H   0  0  0  0  0  0  0  0  0  0  0  0  # atno 6907 bound_to 6896
  152.4528  134.5354  159.9833 H   0  0  0  0  0  0  0  0  0  0  0  0  # atno 6908 bound_to 6896
  151.5486  133.3383  159.2984 H   0  0  0  0  0  0  0  0  0  0  0  0  # atno 6909 bound_to 6896
  144.7804  139.7583  143.6262 H   0  0  0  0  0  0  0  0  0  0  0  0  # atno 7974 bound_to 7965
  155.3884  140.3432  155.4250 H   0  0  0  0  0  0  0  0  0  0  0  0  # atno 8008 bound_to 7997
  156.1571  140.1589  156.8707 H   0  0  0  0  0  0  0  0  0  0  0  0  # atno 8009 bound_to 7997
  154.5105  140.0791  156.7962 H   0  0  0  0  0  0  0  0  0  0  0  0  # atno 8010 bound_to 7997
  140.6061  143.8505  150.7015 H   0  0  0  0  0  0  0  0  0  0  0  0  # atno 10167 bound_to 10162
  157.6885  131.0105  150.2574 H   0  0  0  0  0  0  0  0  0  0  0  0  # atno 10718 bound_to 10713
  154.2139  135.6389  153.5124 H   0  0  0  0  0  0  0  0  0  0  0  0  # atno 10763 bound_to 10752
  152.9984  135.5480  154.6186 H   0  0  0  0  0  0  0  0  0  0  0  0  # atno 10764 bound_to 10752
  154.5629  135.2910  155.0875 H   0  0  0  0  0  0  0  0  0  0  0  0  # atno 10765 bound_to 10752
  140.8490  134.2309  157.4771 H   0  0  0  0  0  0  0  0  0  0  0  0  # atno 11005 bound_to 11000
  146.2008  139.5302  142.9744 LP  0  0  0  0  0  0  0  0  0  0  0  0  # atno 17320 bound_to 7965
  145.6067  141.0346  143.1988 LP  0  0  0  0  0  0  0  0  0  0  0  0  # atno 17321 bound_to 7965
  140.2063  143.3919  152.1753 LP  0  0  0  0  0  0  0  0  0  0  0  0  # atno 17342 bound_to 10162
  139.5326  144.7175  151.5004 LP  0  0  0  0  0  0  0  0  0  0  0  0  # atno 17343 bound_to 10162
  156.3160  130.3779  149.7618 LP  0  0  0  0  0  0  0  0  0  0  0  0  # atno 17370 bound_to 10713
  156.5203  130.8212  151.3201 LP  0  0  0  0  0  0  0  0  0  0  0  0  # atno 17371 bound_to 10713
  139.8704  134.9673  156.4594 LP  0  0  0  0  0  0  0  0  0  0  0  0  # atno 17394 bound_to 11000
  140.8812  133.7917  155.9468 LP  0  0  0  0  0  0  0  0  0  0  0  0  # atno 17395 bound_to 11000

$$$$
