AV-unprocessed.smi:2313|AV-procd|sdf|9265|dock7
  -GOLD-   2272012493D 1   1.00000     0.00000
 Structure written by MMmdl.
 37 38  0  0  0  0  0  0  0  0  1 V2000
  151.6142  143.0169  160.4169 C   0  0  0  0  0  0  0  0  0  0  0  0
  152.7329  142.3326  161.1801 C   0  0  0  0  0  0  0  0  0  0  0  0
  153.1794  142.8690  162.4490 C   0  0  0  0  0  0  0  0  0  0  0  0
  154.1713  142.2537  163.1099 C   0  0  0  0  0  0  0  0  0  0  0  0
  154.7935  141.0971  162.6080 N   0  0  0  0  0  0  0  0  0  0  0  0
  155.8778  140.5108  163.4136 C   0  0  0  0  0  0  0  0  0  0  0  0
  156.4513  141.5013  164.4352 C   0  0  0  0  0  0  0  0  0  0  0  0
  156.9941  142.5381  164.0541 O   0  0  0  0  0  0  0  0  0  0  0  0
  156.3193  141.1548  165.7268 N   0  0  0  0  0  0  0  0  0  0  0  0
  156.8129  141.8607  166.9161 C   0  0  2  0  0  0  0  0  0  0  0  0
  158.2869  142.1929  166.6321 C   0  0  0  0  0  0  0  0  0  0  0  0
  156.7698  141.0066  168.1194 C   0  0  0  0  0  0  0  0  0  0  0  0
  156.7329  140.3372  169.0628 N   0  0  0  0  0  0  0  0  0  0  0  0
  156.0771  143.1623  167.2457 C   0  0  0  0  0  0  0  0  0  0  0  0
  156.1960  144.4357  166.4359 C   0  0  0  0  0  0  0  0  0  0  0  0
  156.7851  144.3661  167.8268 C   0  0  0  0  0  0  0  0  0  0  0  0
  154.4231  140.5343  161.4180 C   0  0  0  0  0  0  0  0  0  0  0  0
  154.9720  139.5194  160.9840 O   0  0  0  0  0  0  0  0  0  0  0  0
  153.3368  141.2193  160.6999 C   0  0  0  0  0  0  0  0  0  0  0  0
  152.9561  140.6350  159.4545 C   0  0  0  0  0  0  0  0  0  0  0  0
  152.6392  140.1787  158.4389 N   0  0  0  0  0  0  0  0  0  0  0  0
  151.2472  143.8916  160.9546 H   0  0  0  0  0  0  0  0  0  0  0  0
  150.7770  142.3336  160.2725 H   0  0  0  0  0  0  0  0  0  0  0  0
  151.9654  143.3446  159.4381 H   0  0  0  0  0  0  0  0  0  0  0  0
  152.7253  143.7584  162.8607 H   0  0  0  0  0  0  0  0  0  0  0  0
  154.5528  142.6104  164.0556 H   0  0  0  0  0  0  0  0  0  0  0  0
  155.5308  139.6300  163.9552 H   0  0  0  0  0  0  0  0  0  0  0  0
  156.6711  140.1499  162.7559 H   0  0  0  0  0  0  0  0  0  0  0  0
  155.8470  140.2815  165.9103 H   0  0  0  0  0  0  0  0  0  0  0  0
  158.7505  142.6968  167.4810 H   0  0  0  0  0  0  0  0  0  0  0  0
  158.3880  142.8482  165.7660 H   0  0  0  0  0  0  0  0  0  0  0  0
  158.8669  141.2904  166.4343 H   0  0  0  0  0  0  0  0  0  0  0  0
  155.0787  142.9809  167.6401 H   0  0  0  0  0  0  0  0  0  0  0  0
  156.8949  144.4777  165.6057 H   0  0  0  0  0  0  0  0  0  0  0  0
  155.2933  145.0286  166.3048 H   0  0  0  0  0  0  0  0  0  0  0  0
  156.2751  144.9134  168.6169 H   0  0  0  0  0  0  0  0  0  0  0  0
  157.8699  144.3403  167.9075 H   0  0  0  0  0  0  0  0  0  0  0  0
  1  2  1  0  0  0  0
  1 22  1  0  0  0  0
  1 23  1  0  0  0  0
  1 24  1  0  0  0  0
  2 19  2  0  0  0  0
  2  3  1  0  0  0  0
  3  4  2  0  0  0  0
  3 25  1  0  0  0  0
  4  5  1  0  0  0  0
  4 26  1  0  0  0  0
  5  6  1  0  0  0  0
  5 17  1  0  0  0  0
  6  7  1  0  0  0  0
  6 27  1  0  0  0  0
  6 28  1  0  0  0  0
  7  8  2  0  0  0  0
  7  9  1  0  0  0  0
  9 10  1  0  0  0  0
  9 29  1  0  0  0  0
 10 11  1  0  0  0  0
 10 12  1  0  0  0  0
 10 14  1  0  0  0  0
 11 30  1  0  0  0  0
 11 31  1  0  0  0  0
 11 32  1  0  0  0  0
 12 13  3  0  0  0  0
 14 16  1  0  0  0  0
 14 15  1  0  0  0  0
 14 33  1  0  0  0  0
 15 16  1  0  0  0  0
 15 34  1  0  0  0  0
 15 35  1  0  0  0  0
 16 36  1  0  0  0  0
 16 37  1  0  0  0  0
 17 18  2  0  0  0  0
 17 19  1  0  0  0  0
 19 20  1  0  0  0  0
 20 21  3  0  0  0  0
M  END
> <s_m_source_file>
AV-unprocessed.smi

> <i_m_source_file_index>
2313

> <i_lp_mmshare_version>
43012

> <i_f3d_flags>
0

> <s_epik_input>
W0NIM11jMVtjSF1bY0hdbihjKD1PKWMxQyNOKVtDSDJdQyg9TylbTkhdW0NAQF0oW0NIM10pKEMjTilbQ0hdMltDSDJdW0NIMl0y

> <s_epik_cmdline>
J2VwaWtfcHl0aG9uJywgJy1waCcsICc3LjAnLCAnLXRuJywgJzgnLCAnLW1hJywgJzIwMCcsICctbWV0YWxfYmluZGluZycsICctaW1hZScsICc8aW5maWxlLm1hZT4nLCAnLW9tYWUnLCAnPG91dGZpbGUubWFlPic=

> <r_lp_tautomer_probability>
1

> <r_epik_Ionization_Penalty>
4.65501e-07

> <r_epik_Ionization_Penalty_Charging>
2.39086e-10

> <r_epik_Ionization_Penalty_Neutral>
4.65262e-07

> <r_epik_State_Penalty>
-0

> <r_epik_Charging_Adjusted_Penalty>
2.39086e-10

> <i_epik_Tot_Q>
0

> <i_epik_Tot_abs_Q>
0

> <r_epik_Metal_State_Penalty>
-0

> <b_epik_Metal_Only>
0

> <s_lp_Force_Field>
OPLS_2005

> <r_lp_Energy>
23.1169

> <b_lp_Chiralities_Consistent>
1

> <s_lp_Variant>
AV-unprocessed.smi:2313-2

> <Gold.Version>
5.8.1

> <Gold.Id.Protein>
6NUR|6NUR_protein|mol2

> <Gold.PLP.Fitness>
45.3817

> <Gold.PLP.PLP>
-43.7042

> <Gold.PLP.part.hbond>
-2.0000

> <Gold.PLP.part.metal>
0.0000

> <Gold.PLP.part.buried>
-1.1414

> <Gold.PLP.part.nonpolar>
-39.2713

> <Gold.PLP.part.repulsive>
0.2329

> <Gold.PLP.ligand.clash>
0.2737

> <Gold.PLP.ligand.torsion>
1.2589

> <Gold.PLP.Chemscore.Hbond>
0.9920

> <Gold.PLP.Chemscore.CHOScore>
0.0000

> <Gold.PLP.Chemscore.Metal>
0.0000

> <Gold.PLP.Chemscore.Internal.Correction>
1.4930

> <Gold.Rescore>
     Score         DG    S(hbond)    S(metal)    S(lipo)     H(rot)  DE(clash)    DE(int)     intcor
     11.40     -14.77       0.93        0.00      92.00       1.80       0.67       2.69       ----

> <Gold.Chemscore.Fitness>
11.4044

> <Gold.Chemscore.DG>
-14.7654

> <Gold.Chemscore.ZeroCoef>
-5.4800

> <Gold.Chemscore.Hbond>
0.9335

> <Gold.Chemscore.Metal>
0.0000

> <Gold.Chemscore.Lipo>
92.0013

> <Gold.Chemscore.Internal_Hbond>
0.0000

> <Gold.Chemscore.DEClash>
0.6671

> <Gold.Chemscore.DEInternal>
2.6939

> <Gold.Chemscore.Rot>
1.7955

> <Gold.Chemscore.Internal.Correction>
   9.000000E+99

> <Gold.Chemscore.Hbonds>
donor molecule, donor type, donor heavy atom, donor atom, acceptor molecule, acceptor atom, score
      P1  H  7997  8009       L1    21  0.02

> <Gold.Chemscore.Hbond.Weighted>
-3.1178

> <Gold.Chemscore.Metal.Weighted>
-0.0000

> <Gold.Chemscore.Lipo.Weighted>
-10.7642

> <Gold.Chemscore.Internal_Hbond.Weighted>
0.0000

> <Gold.Chemscore.DEClash.Weighted>
0.6671

> <Gold.Chemscore.DEInternal.Weighted>
2.6939

> <Gold.Chemscore.Rot.Weighted>
4.5965

> <Gold.Chemscore.Internal.Correction.Weighted>
   9.000000E+99

> <Gold.Protein.RotatedTorsions>
[ 6907 6896 6895 6894 ] final  -39.86 input  -60.11 | X-H torsion
[ 7974 7965 7964 7962 ] final   13.65 input  175.53 | X-H torsion
[ 8008 7997 7996 7995 ] final  144.42 input   59.86 | X-H torsion
[ 10167 10162 10161 10158 ] final  -39.72 input  -65.29 | X-H torsion
[ 10718 10713 10712 10709 ] final -151.91 input   66.30 | X-H torsion
[ 10763 10752 10751 10750 ] final  -71.01 input  -60.55 | X-H torsion
[ 11005 11000 10999 10996 ] final   95.13 input  -57.11 | X-H torsion

> <Gold.Protein.ActiveResidues>
 VAL166  LYS551  ARG553  GLY616  TRP617  ASP618  TYR619  PRO620  LYS621  CYS622 
 ASP623  PHE694  ASN695  SER759  ASP760  ASP761  ALA762  ILE779  LEU786  VAL792 
 PHE793  MET794  SER795  GLU796  ALA797  LYS798  CYS799  TRP800  GLU811  SER814 

> <Gold.Protein.RotatedAtoms>
  150.9852  134.9199  159.7867 H   0  0  0  0  0  0  0  0  0  0  0  0  # atno 6907 bound_to 6896
  152.5234  134.3356  159.9208 H   0  0  0  0  0  0  0  0  0  0  0  0  # atno 6908 bound_to 6896
  151.3362  133.3939  159.2701 H   0  0  0  0  0  0  0  0  0  0  0  0  # atno 6909 bound_to 6896
  146.2324  139.9157  142.8517 H   0  0  0  0  0  0  0  0  0  0  0  0  # atno 7974 bound_to 7965
  156.2908  140.2236  156.5050 H   0  0  0  0  0  0  0  0  0  0  0  0  # atno 8008 bound_to 7997
  154.7658  140.0470  157.1032 H   0  0  0  0  0  0  0  0  0  0  0  0  # atno 8009 bound_to 7997
  154.9935  140.3093  155.4899 H   0  0  0  0  0  0  0  0  0  0  0  0  # atno 8010 bound_to 7997
  140.7056  143.3197  151.2822 H   0  0  0  0  0  0  0  0  0  0  0  0  # atno 10167 bound_to 10162
  156.4655  130.8233  151.2464 H   0  0  0  0  0  0  0  0  0  0  0  0  # atno 10718 bound_to 10713
  154.4257  135.5976  153.6037 H   0  0  0  0  0  0  0  0  0  0  0  0  # atno 10763 bound_to 10752
  152.9796  135.5963  154.3901 H   0  0  0  0  0  0  0  0  0  0  0  0  # atno 10764 bound_to 10752
  154.3732  135.2841  155.2233 H   0  0  0  0  0  0  0  0  0  0  0  0  # atno 10765 bound_to 10752
  139.8792  134.8882  156.3966 H   0  0  0  0  0  0  0  0  0  0  0  0  # atno 11005 bound_to 11000
  145.2186  140.9925  143.4059 LP  0  0  0  0  0  0  0  0  0  0  0  0  # atno 17320 bound_to 7965
  144.9630  139.3960  143.6346 LP  0  0  0  0  0  0  0  0  0  0  0  0  # atno 17321 bound_to 7965
  139.6647  144.0127  152.2715 LP  0  0  0  0  0  0  0  0  0  0  0  0  # atno 17342 bound_to 10162
  139.9705  144.6497  150.7993 LP  0  0  0  0  0  0  0  0  0  0  0  0  # atno 17343 bound_to 10162
  157.7495  131.0093  150.3263 LP  0  0  0  0  0  0  0  0  0  0  0  0  # atno 17370 bound_to 10713
  156.3672  130.3857  149.7204 LP  0  0  0  0  0  0  0  0  0  0  0  0  # atno 17371 bound_to 10713
  140.9296  133.7588  156.0008 LP  0  0  0  0  0  0  0  0  0  0  0  0  # atno 17394 bound_to 11000
  140.8346  134.3138  157.5336 LP  0  0  0  0  0  0  0  0  0  0  0  0  # atno 17395 bound_to 11000

$$$$
