AV-unprocessed.smi:1171|AV-procd|sdf|4942|dock2
  -GOLD-   22720 3523D 1   1.00000     0.00000
 Structure written by MMmdl.
 32 33  0  0  0  0  0  0  0  0  1 V2000
  147.5941  138.7091  153.4869 C   0  0  0  0  0  0  0  0  0  0  0  0
  148.4835  139.5417  154.3621 C   0  0  0  0  0  0  0  0  0  0  0  0
  148.2731  140.8787  154.8092 C   0  0  0  0  0  0  0  0  0  0  0  0
  149.3872  141.1216  155.5648 C   0  0  0  0  0  0  0  0  0  0  0  0
  149.7201  142.2399  156.2619 N   0  0  0  0  0  0  0  0  0  0  0  0
  150.2507  142.3421  157.4965 C   0  0  0  0  0  0  0  0  0  0  0  0
  150.4592  141.3928  158.2495 O   0  0  0  0  0  0  0  0  0  0  0  0
  150.5058  143.6046  157.8858 N   0  0  0  0  0  0  0  0  0  0  0  0
  151.0642  144.0509  159.1279 C   0  0  0  0  0  0  0  0  0  0  0  0
  152.2193  145.0261  159.0544 C   0  0  0  0  0  0  0  0  0  0  0  0
  152.4678  143.6041  159.4757 C   0  0  0  0  0  0  0  0  0  0  0  0
  150.1861  139.9997  155.5544 N   0  0  0  0  0  0  0  0  0  0  0  0
  151.4551  139.7611  156.2160 C   0  0  0  0  0  0  0  0  0  0  0  0
  152.0939  138.4540  155.7360 C   0  0  0  0  0  0  0  0  0  0  0  0
  151.3027  137.2716  156.1055 C   0  0  0  0  0  0  0  0  0  0  0  0
  150.6807  136.3404  156.3958 N   0  0  0  0  0  0  0  0  0  0  0  0
  149.6211  139.0237  154.8115 N   0  0  0  0  0  0  0  0  0  0  0  0
  146.6737  139.2396  153.2418 H   0  0  0  0  0  0  0  0  0  0  0  0
  147.3179  137.7771  153.9807 H   0  0  0  0  0  0  0  0  0  0  0  0
  148.0913  138.4571  152.5498 H   0  0  0  0  0  0  0  0  0  0  0  0
  147.4362  141.5292  154.6036 H   0  0  0  0  0  0  0  0  0  0  0  0
  149.5532  143.1119  155.7819 H   0  0  0  0  0  0  0  0  0  0  0  0
  150.2072  144.3349  157.2554 H   0  0  0  0  0  0  0  0  0  0  0  0
  150.3846  144.2119  159.9637 H   0  0  0  0  0  0  0  0  0  0  0  0
  152.5729  145.3266  158.0696 H   0  0  0  0  0  0  0  0  0  0  0  0
  152.2773  145.7940  159.8234 H   0  0  0  0  0  0  0  0  0  0  0  0
  152.6902  143.4224  160.5254 H   0  0  0  0  0  0  0  0  0  0  0  0
  152.9850  142.9546  158.7716 H   0  0  0  0  0  0  0  0  0  0  0  0
  152.1218  140.6028  156.0228 H   0  0  0  0  0  0  0  0  0  0  0  0
  151.2890  139.7322  157.2935 H   0  0  0  0  0  0  0  0  0  0  0  0
  152.2018  138.4566  154.6510 H   0  0  0  0  0  0  0  0  0  0  0  0
  153.0910  138.3380  156.1614 H   0  0  0  0  0  0  0  0  0  0  0  0
  1  2  1  0  0  0  0
  1 18  1  0  0  0  0
  1 19  1  0  0  0  0
  1 20  1  0  0  0  0
  2 17  2  0  0  0  0
  2  3  1  0  0  0  0
  3  4  2  0  0  0  0
  3 21  1  0  0  0  0
  4  5  1  0  0  0  0
  4 12  1  0  0  0  0
  5  6  1  0  0  0  0
  5 22  1  0  0  0  0
  6  7  2  0  0  0  0
  6  8  1  0  0  0  0
  8  9  1  0  0  0  0
  8 23  1  0  0  0  0
  9 11  1  0  0  0  0
  9 10  1  0  0  0  0
  9 24  1  0  0  0  0
 10 11  1  0  0  0  0
 10 25  1  0  0  0  0
 10 26  1  0  0  0  0
 11 27  1  0  0  0  0
 11 28  1  0  0  0  0
 12 13  1  0  0  0  0
 12 17  1  0  0  0  0
 13 14  1  0  0  0  0
 13 29  1  0  0  0  0
 13 30  1  0  0  0  0
 14 15  1  0  0  0  0
 14 31  1  0  0  0  0
 14 32  1  0  0  0  0
 15 16  3  0  0  0  0
M  END
> <s_m_source_file>
AV-unprocessed.smi

> <i_m_source_file_index>
1171

> <i_lp_mmshare_version>
43012

> <i_f3d_flags>
0

> <s_epik_input>
TiNDW0NIMl1bQ0gyXW4objEpYyhbY0hdYzFbQ0gzXSlbTkhdQyg9TylbTkhdW0NIXTJbQ0gyXVtDSDJdMg==

> <s_epik_cmdline>
J2VwaWtfcHl0aG9uJywgJy1waCcsICc3LjAnLCAnLXRuJywgJzgnLCAnLW1hJywgJzIwMCcsICctbWV0YWxfYmluZGluZycsICctaW1hZScsICc8aW5maWxlLm1hZT4nLCAnLW9tYWUnLCAnPG91dGZpbGUubWFlPic=

> <r_lp_tautomer_probability>
1

> <r_epik_Ionization_Penalty>
3.70036e-05

> <r_epik_Ionization_Penalty_Charging>
0

> <r_epik_Ionization_Penalty_Neutral>
3.70036e-05

> <r_epik_State_Penalty>
-0

> <r_epik_Charging_Adjusted_Penalty>
0

> <i_epik_Tot_Q>
0

> <i_epik_Tot_abs_Q>
0

> <r_epik_Metal_State_Penalty>
-0

> <b_epik_Metal_Only>
0

> <s_lp_Force_Field>
OPLS_2005

> <r_lp_Energy>
27.1595

> <b_lp_Chiralities_Consistent>
1

> <s_lp_Variant>
AV-unprocessed.smi:1171-1

> <Gold.Version>
5.8.1

> <Gold.Id.Protein>
6NUR|6NUR_protein|mol2

> <Gold.PLP.Fitness>
42.1307

> <Gold.PLP.PLP>
-34.3117

> <Gold.PLP.part.hbond>
-3.0000

> <Gold.PLP.part.metal>
0.0000

> <Gold.PLP.part.buried>
-0.4791

> <Gold.PLP.part.nonpolar>
-31.0006

> <Gold.PLP.part.repulsive>
0.3811

> <Gold.PLP.ligand.clash>
0.0000

> <Gold.PLP.ligand.torsion>
0.4871

> <Gold.PLP.Chemscore.Hbond>
2.9120

> <Gold.PLP.Chemscore.CHOScore>
0.0000

> <Gold.PLP.Chemscore.Metal>
0.0000

> <Gold.Chemscore.Hbonds>
donor molecule, donor type, donor heavy atom, donor atom, acceptor molecule, acceptor atom, score
      L1  H     5    22       P1  8028  1.00
      L1  H     8    23       P1  8028  0.77

> <Gold.PLP.Chemscore.Internal.Correction>
0.0571

> <Gold.Rescore>
     Score         DG    S(hbond)    S(metal)    S(lipo)     H(rot)  DE(clash)    DE(int)     intcor
     16.41     -17.76       2.48        0.00      69.25       1.61       0.43       0.93       ----

> <Gold.Chemscore.Fitness>
16.4082

> <Gold.Chemscore.DG>
-17.7615

> <Gold.Chemscore.ZeroCoef>
-5.4800

> <Gold.Chemscore.Hbond>
2.4818

> <Gold.Chemscore.Metal>
0.0000

> <Gold.Chemscore.Lipo>
69.2515

> <Gold.Chemscore.Internal_Hbond>
0.0000

> <Gold.Chemscore.DEClash>
0.4276

> <Gold.Chemscore.DEInternal>
0.9257

> <Gold.Chemscore.Rot>
1.6056

> <Gold.Chemscore.Internal.Correction>
   9.000000E+99

> <Gold.Chemscore.Hbonds>
donor molecule, donor type, donor heavy atom, donor atom, acceptor molecule, acceptor atom, score
      L1  H     5    22       P1  8028  0.98
      L1  H     8    23       P1  8028  0.48

> <Gold.Chemscore.Hbond.Weighted>
-8.2893

> <Gold.Chemscore.Metal.Weighted>
-0.0000

> <Gold.Chemscore.Lipo.Weighted>
-8.1024

> <Gold.Chemscore.Internal_Hbond.Weighted>
0.0000

> <Gold.Chemscore.DEClash.Weighted>
0.4276

> <Gold.Chemscore.DEInternal.Weighted>
0.9257

> <Gold.Chemscore.Rot.Weighted>
4.1102

> <Gold.Chemscore.Internal.Correction.Weighted>
   9.000000E+99

> <Gold.Protein.RotatedTorsions>
[ 6907 6896 6895 6894 ] final  -11.70 input  -60.11 | X-H torsion
[ 7974 7965 7964 7962 ] final  169.86 input  175.53 | X-H torsion
[ 8008 7997 7996 7995 ] final   44.64 input   59.86 | X-H torsion
[ 10167 10162 10161 10158 ] final   60.01 input  -65.29 | X-H torsion
[ 10718 10713 10712 10709 ] final  -33.82 input   66.30 | X-H torsion
[ 10763 10752 10751 10750 ] final   87.27 input  -60.55 | X-H torsion
[ 11005 11000 10999 10996 ] final  -23.12 input  -57.11 | X-H torsion

> <Gold.Protein.ActiveResidues>
 VAL166  LYS551  ARG553  GLY616  TRP617  ASP618  TYR619  PRO620  LYS621  CYS622 
 ASP623  PHE694  ASN695  SER759  ASP760  ASP761  ALA762  ILE779  LEU786  VAL792 
 PHE793  MET794  SER795  GLU796  ALA797  LYS798  CYS799  TRP800  GLU811  SER814 

> <Gold.Protein.RotatedAtoms>
  151.3821  135.0941  159.9499 H   0  0  0  0  0  0  0  0  0  0  0  0  # atno 6907 bound_to 6896
  152.5105  133.9061  159.7475 H   0  0  0  0  0  0  0  0  0  0  0  0  # atno 6908 bound_to 6896
  150.9497  133.6508  159.2803 H   0  0  0  0  0  0  0  0  0  0  0  0  # atno 6909 bound_to 6896
  144.7341  139.9117  143.6415 H   0  0  0  0  0  0  0  0  0  0  0  0  # atno 7974 bound_to 7965
  155.3226  140.3398  155.4241 H   0  0  0  0  0  0  0  0  0  0  0  0  # atno 8008 bound_to 7997
  156.1901  140.1695  156.8145 H   0  0  0  0  0  0  0  0  0  0  0  0  # atno 8009 bound_to 7997
  154.5432  140.0720  156.8529 H   0  0  0  0  0  0  0  0  0  0  0  0  # atno 8010 bound_to 7997
  140.1703  144.4284  150.6665 H   0  0  0  0  0  0  0  0  0  0  0  0  # atno 10167 bound_to 10162
  156.3580  130.4319  149.7648 H   0  0  0  0  0  0  0  0  0  0  0  0  # atno 10718 bound_to 10713
  153.1652  135.4549  154.9827 H   0  0  0  0  0  0  0  0  0  0  0  0  # atno 10763 bound_to 10752
  154.7927  135.3226  154.7743 H   0  0  0  0  0  0  0  0  0  0  0  0  # atno 10764 bound_to 10752
  153.8227  135.6945  153.4879 H   0  0  0  0  0  0  0  0  0  0  0  0  # atno 10765 bound_to 10752
  140.8722  133.7713  156.0200 H   0  0  0  0  0  0  0  0  0  0  0  0  # atno 11005 bound_to 11000
  146.0996  139.3991  143.0355 LP  0  0  0  0  0  0  0  0  0  0  0  0  # atno 17320 bound_to 7965
  145.7597  140.9940  143.1206 LP  0  0  0  0  0  0  0  0  0  0  0  0  # atno 17321 bound_to 7965
  140.6586  143.2245  151.5909 LP  0  0  0  0  0  0  0  0  0  0  0  0  # atno 17342 bound_to 10162
  139.5341  144.2831  152.1213 LP  0  0  0  0  0  0  0  0  0  0  0  0  # atno 17343 bound_to 10162
  156.4823  130.8046  151.3060 LP  0  0  0  0  0  0  0  0  0  0  0  0  # atno 17370 bound_to 10713
  157.7470  131.0002  150.2916 LP  0  0  0  0  0  0  0  0  0  0  0  0  # atno 17371 bound_to 10713
  140.8560  134.2897  157.5255 LP  0  0  0  0  0  0  0  0  0  0  0  0  # atno 17394 bound_to 11000
  139.8713  134.9493  156.4022 LP  0  0  0  0  0  0  0  0  0  0  0  0  # atno 17395 bound_to 11000

$$$$
