AV-unprocessed.smi:3033|AV-procd|sdf|11575|dock6
  -GOLD-   2272016543D 1   1.00000     0.00000
 Structure written by MMmdl.
 32 33  0  0  0  0  0  0  0  0  2 V2000
  153.3472  142.6811  163.1165 C   0  0  0  0  0  0  0  0  0  0  0  0
  152.9412  142.1207  161.8764 O   0  0  0  0  0  0  0  0  0  0  0  0
  152.4780  142.9758  160.8995 C   0  0  0  0  0  0  0  0  0  0  0  0
  152.2520  144.3614  161.0959 C   0  0  0  0  0  0  0  0  0  0  0  0
  151.7839  145.1630  160.0371 C   0  0  0  0  0  0  0  0  0  0  0  0
  151.5347  144.5941  158.7749 C   0  0  0  0  0  0  0  0  0  0  0  0
  151.7480  143.2164  158.5656 C   0  0  0  0  0  0  0  0  0  0  0  0
  151.4885  142.6091  157.1952 C   0  0  2  0  0  0  0  0  0  0  0  0
  151.0082  143.5793  156.2847 O   0  0  0  0  0  0  0  0  0  0  0  0
  150.4592  141.4623  157.2845 C   0  0  0  0  0  0  0  0  0  0  0  0
  151.0910  140.1418  157.1516 N   0  0  0  0  0  0  0  0  0  0  0  0
  151.5372  139.5157  158.3274 C   0  0  0  0  0  0  0  0  0  0  0  0
  152.1233  138.3028  158.3133 C   0  0  0  0  0  0  0  0  0  0  0  0
  152.6597  137.5557  159.7759 Cl  0  0  0  0  0  0  0  0  0  0  0  0
  152.2890  137.6361  157.0231 C   0  0  0  0  0  0  0  0  0  0  0  0
  152.8233  136.5291  156.9735 O   0  0  0  0  0  0  0  0  0  0  0  0
  151.8340  138.2847  155.9110 N   0  5  0  0  0  0  0  0  0  0  0  0
  151.2377  139.5162  155.9459 C   0  0  0  0  0  0  0  0  0  0  0  0
  150.8262  140.0776  154.9298 O   0  0  0  0  0  0  0  0  0  0  0  0
  152.2201  142.4182  159.6304 C   0  0  0  0  0  0  0  0  0  0  0  0
  153.7043  141.8858  163.7707 H   0  0  0  0  0  0  0  0  0  0  0  0
  152.5167  143.1761  163.6216 H   0  0  0  0  0  0  0  0  0  0  0  0
  154.1647  143.3913  162.9847 H   0  0  0  0  0  0  0  0  0  0  0  0
  152.4323  144.8348  162.0490 H   0  0  0  0  0  0  0  0  0  0  0  0
  151.6178  146.2186  160.1935 H   0  0  0  0  0  0  0  0  0  0  0  0
  151.1825  145.2199  157.9677 H   0  0  0  0  0  0  0  0  0  0  0  0
  152.4354  142.2340  156.8045 H   0  0  0  0  0  0  0  0  0  0  0  0
  150.0971  143.7407  156.4757 H   0  0  0  0  0  0  0  0  0  0  0  0
  149.9527  141.5017  158.2508 H   0  0  0  0  0  0  0  0  0  0  0  0
  149.6631  141.6007  156.5512 H   0  0  0  0  0  0  0  0  0  0  0  0
  151.3693  140.0768  159.2352 H   0  0  0  0  0  0  0  0  0  0  0  0
  152.3935  141.3635  159.4725 H   0  0  0  0  0  0  0  0  0  0  0  0
  1  2  1  0  0  0  0
  1 21  1  0  0  0  0
  1 22  1  0  0  0  0
  1 23  1  0  0  0  0
  2  3  1  0  0  0  0
  3 20  1  0  0  0  0
  3  4  2  0  0  0  0
  4  5  1  0  0  0  0
  4 24  1  0  0  0  0
  5  6  2  0  0  0  0
  5 25  1  0  0  0  0
  6  7  1  0  0  0  0
  6 26  1  0  0  0  0
  7  8  1  0  0  0  0
  7 20  2  0  0  0  0
  8  9  1  0  0  0  0
  8 10  1  0  0  0  0
  8 27  1  0  0  0  0
  9 28  1  0  0  0  0
 10 11  1  0  0  0  0
 10 29  1  0  0  0  0
 10 30  1  0  0  0  0
 11 18  1  0  0  0  0
 11 12  1  0  0  0  0
 12 13  2  0  0  0  0
 12 31  1  0  0  0  0
 13 14  1  0  0  0  0
 13 15  1  0  0  0  0
 15 16  2  0  0  0  0
 15 17  1  0  0  0  0
 17 18  1  0  0  0  0
 18 19  2  0  0  0  0
 20 32  1  0  0  0  0
M  CHG  1  17  -1
M  END
> <s_m_source_file>
AV-unprocessed.smi

> <i_m_source_file_index>
3033

> <i_lp_mmshare_version>
43012

> <i_f3d_flags>
0

> <s_epik_input>
W0NIM11PYzFbY0hdW2NIXVtjSF1jKFtjSF0xKVtDQEhdKFtPSF0pW0NIMl1uMltjSF1jKENsKWMoPU8pW25IXWMyPU8=

> <s_epik_cmdline>
J2VwaWtfcHl0aG9uJywgJy1waCcsICc3LjAnLCAnLXRuJywgJzgnLCAnLW1hJywgJzIwMCcsICctbWV0YWxfYmluZGluZycsICctaW1hZScsICc8aW5maWxlLm1hZT4nLCAnLW9tYWUnLCAnPG91dGZpbGUubWFlPic=

> <r_lp_tautomer_probability>
1

> <r_epik_Ionization_Penalty>
1.7979

> <r_epik_Ionization_Penalty_Charging>
3.23819e-08

> <r_epik_Ionization_Penalty_Neutral>
1.7979

> <r_epik_State_Penalty>
1.91135

> <r_epik_Charging_Adjusted_Penalty>
1.91135

> <i_epik_Tot_Q>
-1

> <i_epik_Tot_abs_Q>
1

> <r_epik_Metal_State_Penalty>
0.014155

> <b_epik_Metal_Only>
0

> <s_lp_Force_Field>
OPLS_2005

> <r_lp_Energy>
24.094

> <b_lp_Chiralities_Consistent>
1

> <s_lp_Variant>
AV-unprocessed.smi:3033-3

> <Gold.Version>
5.8.1

> <Gold.Id.Protein>
6NUR|6NUR_protein|mol2

> <Gold.PLP.Fitness>
49.0022

> <Gold.PLP.PLP>
-43.9235

> <Gold.PLP.part.hbond>
-2.7390

> <Gold.PLP.part.metal>
0.0000

> <Gold.PLP.part.buried>
-8.1911

> <Gold.PLP.part.nonpolar>
-33.9378

> <Gold.PLP.part.repulsive>
0.1107

> <Gold.PLP.ligand.clash>
0.3602

> <Gold.PLP.ligand.torsion>
1.0900

> <Gold.PLP.Chemscore.Hbond>
2.5360

> <Gold.PLP.Chemscore.CHOScore>
0.0000

> <Gold.PLP.Chemscore.Metal>
0.0000

> <Gold.Chemscore.Hbonds>
donor molecule, donor type, donor heavy atom, donor atom, acceptor molecule, acceptor atom, score
      L1  H     9    28       P1  8028  0.62
      P1  H  7989  7998       L1    19  1.00
      P1  H 10752 10764       L1    16  0.80

> <Gold.PLP.Chemscore.Internal.Correction>
0.0108

> <Gold.Rescore>
     Score         DG    S(hbond)    S(metal)    S(lipo)     H(rot)  DE(clash)    DE(int)     intcor
     18.97     -21.63       2.79        0.00     112.01       2.45       1.58       1.08       ----

> <Gold.Chemscore.Fitness>
18.9693

> <Gold.Chemscore.DG>
-21.6338

> <Gold.Chemscore.ZeroCoef>
-5.4800

> <Gold.Chemscore.Hbond>
2.7900

> <Gold.Chemscore.Metal>
0.0000

> <Gold.Chemscore.Lipo>
112.0068

> <Gold.Chemscore.Internal_Hbond>
0.0000

> <Gold.Chemscore.DEClash>
1.5816

> <Gold.Chemscore.DEInternal>
1.0829

> <Gold.Chemscore.Rot>
2.4491

> <Gold.Chemscore.Internal.Correction>
   9.000000E+99

> <Gold.Chemscore.Hbonds>
donor molecule, donor type, donor heavy atom, donor atom, acceptor molecule, acceptor atom, score
      L1  H     9    28       P1  8028  0.62
      P1  H  7989  7998       L1    19  1.00
      P1  H 10752 10764       L1    16  0.78

> <Gold.Chemscore.Hbond.Weighted>
-9.3187

> <Gold.Chemscore.Metal.Weighted>
-0.0000

> <Gold.Chemscore.Lipo.Weighted>
-13.1048

> <Gold.Chemscore.Internal_Hbond.Weighted>
0.0000

> <Gold.Chemscore.DEClash.Weighted>
1.5816

> <Gold.Chemscore.DEInternal.Weighted>
1.0829

> <Gold.Chemscore.Rot.Weighted>
6.2696

> <Gold.Chemscore.Internal.Correction.Weighted>
   9.000000E+99

> <Gold.Protein.RotatedTorsions>
[ 6907 6896 6895 6894 ] final -139.01 input  -60.11 | X-H torsion
[ 7974 7965 7964 7962 ] final  -12.65 input  175.53 | X-H torsion
[ 8008 7997 7996 7995 ] final   74.04 input   59.86 | X-H torsion
[ 10167 10162 10161 10158 ] final  163.74 input  -65.29 | X-H torsion
[ 10718 10713 10712 10709 ] final  148.43 input   66.30 | X-H torsion
[ 10763 10752 10751 10750 ] final   -5.26 input  -60.55 | X-H torsion
[ 11005 11000 10999 10996 ] final  171.17 input  -57.11 | X-H torsion

> <Gold.Protein.ActiveResidues>
 VAL166  LYS551  ARG553  GLY616  TRP617  ASP618  TYR619  PRO620  LYS621  CYS622 
 ASP623  PHE694  ASN695  SER759  ASP760  ASP761  ALA762  ILE779  LEU786  VAL792 
 PHE793  MET794  SER795  GLU796  ALA797  LYS798  CYS799  TRP800  GLU811  SER814 

> <Gold.Protein.RotatedAtoms>
  151.0424  133.5695  159.2649 H   0  0  0  0  0  0  0  0  0  0  0  0  # atno 6907 bound_to 6896
  151.2736  135.0691  159.9153 H   0  0  0  0  0  0  0  0  0  0  0  0  # atno 6908 bound_to 6896
  152.5366  134.0150  159.8009 H   0  0  0  0  0  0  0  0  0  0  0  0  # atno 6909 bound_to 6896
  146.2144  140.3089  142.8381 H   0  0  0  0  0  0  0  0  0  0  0  0  # atno 7974 bound_to 7965
  155.7925  140.3479  155.5357 H   0  0  0  0  0  0  0  0  0  0  0  0  # atno 8008 bound_to 7997
  155.8619  140.0972  157.1628 H   0  0  0  0  0  0  0  0  0  0  0  0  # atno 8009 bound_to 7997
  154.4012  140.1357  156.3959 H   0  0  0  0  0  0  0  0  0  0  0  0  # atno 8010 bound_to 7997
  139.4878  144.4306  151.9075 H   0  0  0  0  0  0  0  0  0  0  0  0  # atno 10167 bound_to 10162
  157.3087  131.0884  151.1334 H   0  0  0  0  0  0  0  0  0  0  0  0  # atno 10718 bound_to 10713
  153.3961  135.7003  153.6460 H   0  0  0  0  0  0  0  0  0  0  0  0  # atno 10763 bound_to 10752
  153.5012  135.3652  155.2541 H   0  0  0  0  0  0  0  0  0  0  0  0  # atno 10764 bound_to 10752
  154.8706  135.4112  154.3287 H   0  0  0  0  0  0  0  0  0  0  0  0  # atno 10765 bound_to 10752
  140.3162  134.7476  157.4029 H   0  0  0  0  0  0  0  0  0  0  0  0  # atno 11005 bound_to 11000
  144.9003  140.7634  143.5871 LP  0  0  0  0  0  0  0  0  0  0  0  0  # atno 17320 bound_to 7965
  145.3015  139.1849  143.4687 LP  0  0  0  0  0  0  0  0  0  0  0  0  # atno 17321 bound_to 7965
  140.3754  144.2803  150.5915 LP  0  0  0  0  0  0  0  0  0  0  0  0  # atno 17342 bound_to 10162
  140.5282  143.2249  151.8281 LP  0  0  0  0  0  0  0  0  0  0  0  0  # atno 17343 bound_to 10162
  157.2664  130.6683  149.5999 LP  0  0  0  0  0  0  0  0  0  0  0  0  # atno 17370 bound_to 10713
  155.9676  130.4492  150.5651 LP  0  0  0  0  0  0  0  0  0  0  0  0  # atno 17371 bound_to 10713
  140.0982  134.5509  155.8378 LP  0  0  0  0  0  0  0  0  0  0  0  0  # atno 17394 bound_to 11000
  141.2097  133.6687  156.6458 LP  0  0  0  0  0  0  0  0  0  0  0  0  # atno 17395 bound_to 11000

$$$$
