AV-unprocessed.smi:1506|AV-procd|sdf|6078|dock3
  -GOLD-   22720 6203D 1   1.00000     0.00000
 Structure written by MMmdl.
 40 42  0  0  0  0  0  0  0  0  2 V2000
  151.3843  144.6160  158.9360 C   0  0  0  0  0  0  0  0  0  0  0  0
  152.1142  143.7226  159.9177 C   0  0  0  0  0  0  0  0  0  0  0  0
  152.1358  144.0413  161.2898 C   0  0  0  0  0  0  0  0  0  0  0  0
  152.8170  143.2058  162.1939 C   0  0  0  0  0  0  0  0  0  0  0  0
  153.4794  142.0522  161.7318 C   0  0  0  0  0  0  0  0  0  0  0  0
  153.4678  141.7224  160.3528 C   0  0  0  0  0  0  0  0  0  0  0  0
  154.0911  140.6169  159.8145 O   0  0  0  0  0  0  0  0  0  0  0  0
  154.6784  139.6758  160.7036 C   0  0  0  0  0  0  0  0  0  0  0  0
  155.4683  138.6411  159.8887 C   0  0  2  0  0  0  0  0  0  0  0  0
  155.8255  139.2272  158.6524 O   0  0  0  0  0  0  0  0  0  0  0  0
  154.6648  137.3459  159.6530 C   0  0  0  0  0  0  0  0  0  0  0  0
  155.0476  136.2588  160.5655 N   0  0  0  0  0  0  0  0  0  0  0  0
  155.5563  135.0285  160.2842 C   0  0  0  0  0  0  0  0  0  0  0  0
  155.7544  134.3842  161.4678 N   0  3  0  0  0  0  0  0  0  0  0  0
  155.3643  135.2136  162.5214 C   0  0  0  0  0  0  0  0  0  0  0  0
  155.3760  135.0050  163.8972 C   0  0  0  0  0  0  0  0  0  0  0  0
  154.9025  136.0621  164.7020 C   0  0  0  0  0  0  0  0  0  0  0  0
  154.4417  137.2677  164.1342 C   0  0  0  0  0  0  0  0  0  0  0  0
  154.4363  137.4690  162.7382 C   0  0  0  0  0  0  0  0  0  0  0  0
  154.9070  136.4198  161.9491 C   0  0  0  0  0  0  0  0  0  0  0  0
  152.7797  142.5679  159.4580 C   0  0  0  0  0  0  0  0  0  0  0  0
  150.7207  145.3113  159.4513 H   0  0  0  0  0  0  0  0  0  0  0  0
  150.7820  144.0188  158.2508 H   0  0  0  0  0  0  0  0  0  0  0  0
  152.0990  145.1950  158.3509 H   0  0  0  0  0  0  0  0  0  0  0  0
  151.6316  144.9248  161.6536 H   0  0  0  0  0  0  0  0  0  0  0  0
  152.8321  143.4501  163.2458 H   0  0  0  0  0  0  0  0  0  0  0  0
  153.9897  141.4371  162.4571 H   0  0  0  0  0  0  0  0  0  0  0  0
  155.3412  140.1727  161.4143 H   0  0  0  0  0  0  0  0  0  0  0  0
  153.8895  139.1760  161.2687 H   0  0  0  0  0  0  0  0  0  0  0  0
  156.3937  138.4031  160.4150 H   0  0  0  0  0  0  0  0  0  0  0  0
  156.6236  138.8222  158.3484 H   0  0  0  0  0  0  0  0  0  0  0  0
  153.6024  137.5351  159.8118 H   0  0  0  0  0  0  0  0  0  0  0  0
  154.7602  137.0018  158.6229 H   0  0  0  0  0  0  0  0  0  0  0  0
  155.7670  134.6355  159.3000 H   0  0  0  0  0  0  0  0  0  0  0  0
  155.7272  134.0820  164.3348 H   0  0  0  0  0  0  0  0  0  0  0  0
  154.8906  135.9453  165.7759 H   0  0  0  0  0  0  0  0  0  0  0  0
  154.0833  138.0542  164.7823 H   0  0  0  0  0  0  0  0  0  0  0  0
  154.0750  138.3942  162.3143 H   0  0  0  0  0  0  0  0  0  0  0  0
  152.7636  142.3258  158.4051 H   0  0  0  0  0  0  0  0  0  0  0  0
  156.1290  133.4475  161.5476 H   0  0  0  0  0  0  0  0  0  0  0  0
  1  2  1  0  0  0  0
  1 22  1  0  0  0  0
  1 23  1  0  0  0  0
  1 24  1  0  0  0  0
  2 21  1  0  0  0  0
  2  3  2  0  0  0  0
  3  4  1  0  0  0  0
  3 25  1  0  0  0  0
  4  5  2  0  0  0  0
  4 26  1  0  0  0  0
  5  6  1  0  0  0  0
  5 27  1  0  0  0  0
  6  7  1  0  0  0  0
  6 21  2  0  0  0  0
  7  8  1  0  0  0  0
  8  9  1  0  0  0  0
  8 28  1  0  0  0  0
  8 29  1  0  0  0  0
  9 10  1  0  0  0  0
  9 11  1  0  0  0  0
  9 30  1  0  0  0  0
 10 31  1  0  0  0  0
 11 12  1  0  0  0  0
 11 32  1  0  0  0  0
 11 33  1  0  0  0  0
 12 20  1  0  0  0  0
 12 13  1  0  0  0  0
 13 14  2  0  0  0  0
 13 34  1  0  0  0  0
 14 15  1  0  0  0  0
 14 40  1  0  0  0  0
 15 20  2  0  0  0  0
 15 16  1  0  0  0  0
 16 17  2  0  0  0  0
 16 35  1  0  0  0  0
 17 18  1  0  0  0  0
 17 36  1  0  0  0  0
 18 19  2  0  0  0  0
 18 37  1  0  0  0  0
 19 20  1  0  0  0  0
 19 38  1  0  0  0  0
 21 39  1  0  0  0  0
M  CHG  1  14   1
M  END
> <s_m_source_file>
AV-unprocessed.smi

> <i_m_source_file_index>
1506

> <i_lp_mmshare_version>
43012

> <i_f3d_flags>
0

> <s_epik_input>
W0NIM11jMVtjSF1bY0hdW2NIXWMoW2NIXTEpT1tDSDJdW0NASF0oW09IXSlbQ0gyXW4oW2NIXW4yKWMoYzIzKVtjSF1bY0hdW2NIXVtjSF0z

> <s_epik_cmdline>
J2VwaWtfcHl0aG9uJywgJy1waCcsICc3LjAnLCAnLXRuJywgJzgnLCAnLW1hJywgJzIwMCcsICctbWV0YWxfYmluZGluZycsICctaW1hZScsICc8aW5maWxlLm1hZT4nLCAnLW9tYWUnLCAnPG91dGZpbGUubWFlPic=

> <r_lp_tautomer_probability>
1

> <r_epik_Ionization_Penalty>
1.37864

> <r_epik_Ionization_Penalty_Charging>
1.37864

> <r_epik_Ionization_Penalty_Neutral>
2.3993e-06

> <r_epik_State_Penalty>
1.45896

> <r_epik_Charging_Adjusted_Penalty>
2.8376

> <i_epik_Tot_Q>
1

> <i_epik_Tot_abs_Q>
1

> <r_epik_Metal_State_Penalty>
5.49899

> <b_epik_Metal_Only>
0

> <s_lp_Force_Field>
OPLS_2005

> <r_lp_Energy>
20.022

> <b_lp_Chiralities_Consistent>
1

> <s_lp_Variant>
AV-unprocessed.smi:1506-3

> <Gold.Version>
5.8.1

> <Gold.Id.Protein>
6NUR|6NUR_protein|mol2

> <Gold.PLP.Fitness>
52.4300

> <Gold.PLP.PLP>
-51.6514

> <Gold.PLP.part.hbond>
-1.0000

> <Gold.PLP.part.metal>
0.0000

> <Gold.PLP.part.buried>
-5.8275

> <Gold.PLP.part.nonpolar>
-44.3998

> <Gold.PLP.part.repulsive>
0.0621

> <Gold.PLP.ligand.clash>
0.0000

> <Gold.PLP.ligand.torsion>
1.1400

> <Gold.PLP.Chemscore.Hbond>
1.0000

> <Gold.PLP.Chemscore.CHOScore>
0.0000

> <Gold.PLP.Chemscore.Metal>
0.0000

> <Gold.Chemscore.Hbonds>
donor molecule, donor type, donor heavy atom, donor atom, acceptor molecule, acceptor atom, score
      P1  H  7997  8008       L1    10  0.90

> <Gold.PLP.Chemscore.Internal.Correction>
0.0586

> <Gold.Rescore>
     Score         DG    S(hbond)    S(metal)    S(lipo)     H(rot)  DE(clash)    DE(int)     intcor
     18.32     -19.41       0.95        0.00     141.75       2.27       0.00       1.09       ----

> <Gold.Chemscore.Fitness>
18.3193

> <Gold.Chemscore.DG>
-19.4097

> <Gold.Chemscore.ZeroCoef>
-5.4800

> <Gold.Chemscore.Hbond>
0.9466

> <Gold.Chemscore.Metal>
0.0000

> <Gold.Chemscore.Lipo>
141.7539

> <Gold.Chemscore.Internal_Hbond>
0.0000

> <Gold.Chemscore.DEClash>
0.0000

> <Gold.Chemscore.DEInternal>
1.0903

> <Gold.Chemscore.Rot>
2.2723

> <Gold.Chemscore.Internal.Correction>
   9.000000E+99

> <Gold.Chemscore.Hbonds>
donor molecule, donor type, donor heavy atom, donor atom, acceptor molecule, acceptor atom, score
      P1  H  7997  8008       L1    10  0.17

> <Gold.Chemscore.Hbond.Weighted>
-3.1615

> <Gold.Chemscore.Metal.Weighted>
-0.0000

> <Gold.Chemscore.Lipo.Weighted>
-16.5852

> <Gold.Chemscore.Internal_Hbond.Weighted>
0.0000

> <Gold.Chemscore.DEClash.Weighted>
0.0000

> <Gold.Chemscore.DEInternal.Weighted>
1.0903

> <Gold.Chemscore.Rot.Weighted>
5.8170

> <Gold.Chemscore.Internal.Correction.Weighted>
   9.000000E+99

> <Gold.Protein.RotatedTorsions>
[ 6907 6896 6895 6894 ] final  -97.54 input  -60.11 | X-H torsion
[ 7974 7965 7964 7962 ] final  -72.82 input  175.53 | X-H torsion
[ 8008 7997 7996 7995 ] final -141.16 input   59.86 | X-H torsion
[ 10167 10162 10161 10158 ] final -126.62 input  -65.29 | X-H torsion
[ 10718 10713 10712 10709 ] final -104.87 input   66.30 | X-H torsion
[ 10763 10752 10751 10750 ] final  -40.18 input  -60.55 | X-H torsion
[ 11005 11000 10999 10996 ] final  -18.44 input  -57.11 | X-H torsion

> <Gold.Protein.ActiveResidues>
 VAL166  LYS551  ARG553  GLY616  TRP617  ASP618  TYR619  PRO620  LYS621  CYS622 
 ASP623  PHE694  ASN695  SER759  ASP760  ASP761  ALA762  ILE779  LEU786  VAL792 
 PHE793  MET794  SER795  GLU796  ALA797  LYS798  CYS799  TRP800  GLU811  SER814 

> <Gold.Protein.RotatedAtoms>
  150.7019  134.1332  159.4077 H   0  0  0  0  0  0  0  0  0  0  0  0  # atno 6907 bound_to 6896
  151.9318  135.0251  160.0539 H   0  0  0  0  0  0  0  0  0  0  0  0  # atno 6908 bound_to 6896
  152.2169  133.4918  159.5177 H   0  0  0  0  0  0  0  0  0  0  0  0  # atno 6909 bound_to 6896
  145.6602  140.9255  143.0938 H   0  0  0  0  0  0  0  0  0  0  0  0  # atno 7974 bound_to 7965
  155.4733  140.0554  157.2977 H   0  0  0  0  0  0  0  0  0  0  0  0  # atno 8008 bound_to 7997
  154.4689  140.2031  155.9998 H   0  0  0  0  0  0  0  0  0  0  0  0  # atno 8009 bound_to 7997
  156.1023  140.3217  155.7963 H   0  0  0  0  0  0  0  0  0  0  0  0  # atno 8010 bound_to 7997
  139.9695  143.5861  152.2417 H   0  0  0  0  0  0  0  0  0  0  0  0  # atno 10167 bound_to 10162
  156.0322  130.5536  150.7458 H   0  0  0  0  0  0  0  0  0  0  0  0  # atno 10718 bound_to 10713
  153.9417  135.6760  153.4744 H   0  0  0  0  0  0  0  0  0  0  0  0  # atno 10763 bound_to 10752
  153.0928  135.4866  154.8719 H   0  0  0  0  0  0  0  0  0  0  0  0  # atno 10764 bound_to 10752
  154.7373  135.3152  154.8747 H   0  0  0  0  0  0  0  0  0  0  0  0  # atno 10765 bound_to 10752
  140.8268  133.8027  155.9716 H   0  0  0  0  0  0  0  0  0  0  0  0  # atno 11005 bound_to 11000
  144.7092  139.8438  143.7420 LP  0  0  0  0  0  0  0  0  0  0  0  0  # atno 17320 bound_to 7965
  146.1132  139.4139  143.0275 LP  0  0  0  0  0  0  0  0  0  0  0  0  # atno 17321 bound_to 7965
  139.6492  144.7660  151.2182 LP  0  0  0  0  0  0  0  0  0  0  0  0  # atno 17342 bound_to 10162
  140.7526  143.6189  150.8532 LP  0  0  0  0  0  0  0  0  0  0  0  0  # atno 17343 bound_to 10162
  157.5015  131.0919  151.0308 LP  0  0  0  0  0  0  0  0  0  0  0  0  # atno 17370 bound_to 10713
  157.0688  130.5855  149.5399 LP  0  0  0  0  0  0  0  0  0  0  0  0  # atno 17371 bound_to 10713
  140.9041  134.2342  157.5025 LP  0  0  0  0  0  0  0  0  0  0  0  0  # atno 17394 bound_to 11000
  139.8706  134.9720  156.4757 LP  0  0  0  0  0  0  0  0  0  0  0  0  # atno 17395 bound_to 11000

$$$$
