AV-unprocessed.smi:153|AV-procd|sdf|1256|dock9
  -GOLD-   2262018493D 1   1.00000     0.00000
 Structure written by MMmdl.
 60 63  0  0  0  0  0  0  0  0  2 V2000
  151.3954  139.6583  158.5999 C   0  0  0  0  0  0  0  0  0  0  0  0
  152.0921  140.9648  158.1792 C   0  0  2  0  0  0  0  0  0  0  0  0
  152.9948  141.3911  159.1986 O   0  0  0  0  0  0  0  0  0  0  0  0
  152.6052  142.6649  159.6886 C   0  0  0  0  0  0  0  0  0  0  0  0
  151.9371  143.3281  158.4920 C   0  0  0  0  0  0  0  0  0  0  0  0
  151.1754  142.1737  157.8577 C   0  0  2  0  0  0  0  0  0  0  0  0
  149.9285  142.0542  158.5241 O   0  0  0  0  0  0  0  0  0  0  0  0
  150.9096  142.3972  156.3487 C   0  0  0  0  0  0  0  0  0  0  0  0
  150.2439  141.2749  155.7065 N   0  0  0  0  0  0  0  0  0  0  0  0
  150.6987  139.9789  155.6396 C   0  0  0  0  0  0  0  0  0  0  0  0
  149.9035  139.1447  155.0300 N   0  0  0  0  0  0  0  0  0  0  0  0
  148.8223  139.9220  154.6248 C   0  0  0  0  0  0  0  0  0  0  0  0
  147.5977  139.6622  153.9342 C   0  0  0  0  0  0  0  0  0  0  0  0
  147.1937  138.4436  153.4762 N   0  0  0  0  0  0  0  0  0  0  0  0
  147.0834  137.3232  154.4022 C   0  0  0  0  0  0  0  0  0  0  0  0
  146.4355  138.3771  152.2250 C   0  0  0  0  0  0  0  0  0  0  0  0
  145.6399  137.0626  152.0826 C   0  0  1  0  0  0  0  0  0  0  0  0
  144.2634  137.3563  152.2236 O   0  0  0  0  0  0  0  0  0  0  0  0
  145.8343  136.4309  150.6898 C   0  0  0  0  0  0  0  0  0  0  0  0
  145.5661  134.9699  150.6831 N   0  3  0  0  0  0  0  0  0  0  0  0
  146.4745  134.2204  151.5830 C   0  0  0  0  0  0  0  0  0  0  0  0
  146.2030  132.7101  151.4811 C   0  0  0  0  0  0  0  0  0  0  0  0
  144.8405  132.4498  151.7951 O   0  0  0  0  0  0  0  0  0  0  0  0
  143.9531  133.0948  150.8901 C   0  0  0  0  0  0  0  0  0  0  0  0
  144.1521  134.6184  150.9658 C   0  0  0  0  0  0  0  0  0  0  0  0
  146.7695  140.7219  153.7337 N   0  0  0  0  0  0  0  0  0  0  0  0
  147.0989  141.9414  154.1657 C   0  0  0  0  0  0  0  0  0  0  0  0
  148.1937  142.3236  154.8221 N   0  0  0  0  0  0  0  0  0  0  0  0
  149.0323  141.2709  155.0373 C   0  0  0  0  0  0  0  0  0  0  0  0
  150.6903  139.3214  157.8402 H   0  0  0  0  0  0  0  0  0  0  0  0
  150.8501  139.7782  159.5363 H   0  0  0  0  0  0  0  0  0  0  0  0
  152.1259  138.8629  158.7479 H   0  0  0  0  0  0  0  0  0  0  0  0
  152.7186  140.7537  157.3120 H   0  0  0  0  0  0  0  0  0  0  0  0
  151.8947  142.5343  160.5060 H   0  0  0  0  0  0  0  0  0  0  0  0
  153.4591  143.2297  160.0633 H   0  0  0  0  0  0  0  0  0  0  0  0
  151.3058  144.1741  158.7671 H   0  0  0  0  0  0  0  0  0  0  0  0
  152.7074  143.6946  157.8121 H   0  0  0  0  0  0  0  0  0  0  0  0
  149.7207  141.1365  158.6115 H   0  0  0  0  0  0  0  0  0  0  0  0
  150.3054  143.2924  156.1963 H   0  0  0  0  0  0  0  0  0  0  0  0
  151.8499  142.5725  155.8243 H   0  0  0  0  0  0  0  0  0  0  0  0
  151.6370  139.6655  156.0739 H   0  0  0  0  0  0  0  0  0  0  0  0
  147.9810  137.2349  155.0152 H   0  0  0  0  0  0  0  0  0  0  0  0
  146.9657  136.3845  153.8605 H   0  0  0  0  0  0  0  0  0  0  0  0
  146.2188  137.4436  155.0552 H   0  0  0  0  0  0  0  0  0  0  0  0
  145.7937  139.2478  152.0841 H   0  0  0  0  0  0  0  0  0  0  0  0
  147.1648  138.4360  151.4165 H   0  0  0  0  0  0  0  0  0  0  0  0
  145.9426  136.3626  152.8610 H   0  0  0  0  0  0  0  0  0  0  0  0
  143.9667  137.7920  151.4383 H   0  0  0  0  0  0  0  0  0  0  0  0
  145.1639  136.9291  149.9873 H   0  0  0  0  0  0  0  0  0  0  0  0
  146.8463  136.6108  150.3234 H   0  0  0  0  0  0  0  0  0  0  0  0
  147.5125  134.4231  151.3164 H   0  0  0  0  0  0  0  0  0  0  0  0
  146.3341  134.5583  152.6110 H   0  0  0  0  0  0  0  0  0  0  0  0
  146.4369  132.3387  150.4819 H   0  0  0  0  0  0  0  0  0  0  0  0
  146.8381  132.1654  152.1798 H   0  0  0  0  0  0  0  0  0  0  0  0
  144.1200  132.7300  149.8753 H   0  0  0  0  0  0  0  0  0  0  0  0
  142.9280  132.8363  151.1564 H   0  0  0  0  0  0  0  0  0  0  0  0
  143.8758  134.9799  151.9574 H   0  0  0  0  0  0  0  0  0  0  0  0
  143.4854  135.1020  150.2529 H   0  0  0  0  0  0  0  0  0  0  0  0
  146.3799  142.7207  153.9600 H   0  0  0  0  0  0  0  0  0  0  0  0
  145.7713  134.6506  149.7465 H   0  0  0  0  0  0  0  0  0  0  0  0
  1  2  1  0  0  0  0
  1 30  1  0  0  0  0
  1 31  1  0  0  0  0
  1 32  1  0  0  0  0
  2  6  1  0  0  0  0
  2  3  1  0  0  0  0
  2 33  1  0  0  0  0
  3  4  1  0  0  0  0
  4  5  1  0  0  0  0
  4 34  1  0  0  0  0
  4 35  1  0  0  0  0
  5  6  1  0  0  0  0
  5 36  1  0  0  0  0
  5 37  1  0  0  0  0
  6  7  1  0  0  0  0
  6  8  1  0  0  0  0
  7 38  1  0  0  0  0
  8  9  1  0  0  0  0
  8 39  1  0  0  0  0
  8 40  1  0  0  0  0
  9 29  1  0  0  0  0
  9 10  1  0  0  0  0
 10 11  2  0  0  0  0
 10 41  1  0  0  0  0
 11 12  1  0  0  0  0
 12 29  2  0  0  0  0
 12 13  1  0  0  0  0
 13 14  1  0  0  0  0
 13 26  2  0  0  0  0
 14 15  1  0  0  0  0
 14 16  1  0  0  0  0
 15 42  1  0  0  0  0
 15 43  1  0  0  0  0
 15 44  1  0  0  0  0
 16 17  1  0  0  0  0
 16 45  1  0  0  0  0
 16 46  1  0  0  0  0
 17 18  1  0  0  0  0
 17 19  1  0  0  0  0
 17 47  1  0  0  0  0
 18 48  1  0  0  0  0
 19 20  1  0  0  0  0
 19 49  1  0  0  0  0
 19 50  1  0  0  0  0
 20 25  1  0  0  0  0
 20 21  1  0  0  0  0
 20 60  1  0  0  0  0
 21 22  1  0  0  0  0
 21 51  1  0  0  0  0
 21 52  1  0  0  0  0
 22 23  1  0  0  0  0
 22 53  1  0  0  0  0
 22 54  1  0  0  0  0
 23 24  1  0  0  0  0
 24 25  1  0  0  0  0
 24 55  1  0  0  0  0
 24 56  1  0  0  0  0
 25 57  1  0  0  0  0
 25 58  1  0  0  0  0
 26 27  1  0  0  0  0
 27 28  2  0  0  0  0
 27 59  1  0  0  0  0
 28 29  1  0  0  0  0
M  CHG  1  20   1
M  END
> <s_m_source_file>
AV-unprocessed.smi

> <i_m_source_file_index>
153

> <i_lp_mmshare_version>
43012

> <i_f3d_flags>
0

> <s_epik_input>
W0NIMl0xW0NIMl1PW0NAQEhdKFtDSDNdKVtDQEBdMShbT0hdKVtDSDJdbihbY0hdbjIpYyhjMjMpbltjSF1uYzNOKFtDSDNdKVtDSDJdW0NASF0oW09IXSlbQ0gyXU40W0NIMl1bQ0gyXU9bQ0gyXVtDSDJdNA==

> <s_epik_cmdline>
J2VwaWtfcHl0aG9uJywgJy1waCcsICc3LjAnLCAnLXRuJywgJzgnLCAnLW1hJywgJzIwMCcsICctbWV0YWxfYmluZGluZycsICctaW1hZScsICc8aW5maWxlLm1hZT4nLCAnLW9tYWUnLCAnPG91dGZpbGUubWFlPic=

> <r_lp_tautomer_probability>
1

> <r_epik_Ionization_Penalty>
0.403509

> <r_epik_Ionization_Penalty_Charging>
0.40072

> <r_epik_Ionization_Penalty_Neutral>
0.00278876

> <r_epik_State_Penalty>
0.400058

> <r_epik_Charging_Adjusted_Penalty>
0.800778

> <i_epik_Tot_Q>
1

> <i_epik_Tot_abs_Q>
1

> <r_epik_Metal_State_Penalty>
0.400321

> <b_epik_Metal_Only>
0

> <s_lp_Force_Field>
OPLS_2005

> <r_lp_Energy>
47.9216

> <b_lp_Chiralities_Consistent>
1

> <s_lp_Variant>
AV-unprocessed.smi:153-7

> <Gold.Version>
5.8.1

> <Gold.Id.Protein>
6NUR|6NUR_protein|mol2

> <Gold.PLP.Fitness>
51.9942

> <Gold.PLP.PLP>
-49.2577

> <Gold.PLP.part.hbond>
-2.7126

> <Gold.PLP.part.metal>
0.0000

> <Gold.PLP.part.buried>
-4.6297

> <Gold.PLP.part.nonpolar>
-44.8964

> <Gold.PLP.part.repulsive>
3.6802

> <Gold.PLP.ligand.clash>
0.2005

> <Gold.PLP.ligand.torsion>
1.8669

> <Gold.PLP.Chemscore.Hbond>
2.0000

> <Gold.PLP.Chemscore.CHOScore>
0.0000

> <Gold.PLP.Chemscore.Metal>
0.0000

> <Gold.Chemscore.Hbonds>
donor molecule, donor type, donor heavy atom, donor atom, acceptor molecule, acceptor atom, score
      L1  H    18    48       P1 10171  1.00
      L1  H    20    60       P1  7921  0.71

> <Gold.PLP.Chemscore.Internal.Correction>
0.6708

> <Gold.Rescore>
     Score         DG    S(hbond)    S(metal)    S(lipo)     H(rot)  DE(clash)    DE(int)     intcor
     10.47     -14.83       1.88        0.00     105.44       3.62       2.48       1.88       ----

> <Gold.Chemscore.Fitness>
10.4718

> <Gold.Chemscore.DG>
-14.8320

> <Gold.Chemscore.ZeroCoef>
-5.4800

> <Gold.Chemscore.Hbond>
1.8796

> <Gold.Chemscore.Metal>
0.0000

> <Gold.Chemscore.Lipo>
105.4395

> <Gold.Chemscore.Internal_Hbond>
0.0000

> <Gold.Chemscore.DEClash>
2.4800

> <Gold.Chemscore.DEInternal>
1.8801

> <Gold.Chemscore.Rot>
3.6182

> <Gold.Chemscore.Internal.Correction>
   9.000000E+99

> <Gold.Chemscore.Hbonds>
donor molecule, donor type, donor heavy atom, donor atom, acceptor molecule, acceptor atom, score
      L1  H    18    48       P1 10171  1.00
      L1  H    20    60       P1  7921  0.57

> <Gold.Chemscore.Hbond.Weighted>
-6.2780

> <Gold.Chemscore.Metal.Weighted>
-0.0000

> <Gold.Chemscore.Lipo.Weighted>
-12.3364

> <Gold.Chemscore.Internal_Hbond.Weighted>
0.0000

> <Gold.Chemscore.DEClash.Weighted>
2.4800

> <Gold.Chemscore.DEInternal.Weighted>
1.8801

> <Gold.Chemscore.Rot.Weighted>
9.2625

> <Gold.Chemscore.Internal.Correction.Weighted>
   9.000000E+99

> <Gold.Protein.RotatedTorsions>
[ 6907 6896 6895 6894 ] final   -4.25 input  -60.11 | X-H torsion
[ 7974 7965 7964 7962 ] final   84.01 input  175.53 | X-H torsion
[ 8008 7997 7996 7995 ] final  144.95 input   59.86 | X-H torsion
[ 10167 10162 10161 10158 ] final   12.00 input  -65.29 | X-H torsion
[ 10718 10713 10712 10709 ] final   -3.31 input   66.30 | X-H torsion
[ 10763 10752 10751 10750 ] final  -81.29 input  -60.55 | X-H torsion
[ 11005 11000 10999 10996 ] final  162.09 input  -57.11 | X-H torsion

> <Gold.Protein.ActiveResidues>
 VAL166  LYS551  ARG553  GLY616  TRP617  ASP618  TYR619  PRO620  LYS621  CYS622 
 ASP623  PHE694  ASN695  SER759  ASP760  ASP761  ALA762  ILE779  LEU786  VAL792 
 PHE793  MET794  SER795  GLU796  ALA797  LYS798  CYS799  TRP800  GLU811  SER814 

> <Gold.Protein.RotatedAtoms>
  151.5007  135.1061  159.9827 H   0  0  0  0  0  0  0  0  0  0  0  0  # atno 6907 bound_to 6896
  152.4703  133.8010  159.6963 H   0  0  0  0  0  0  0  0  0  0  0  0  # atno 6908 bound_to 6896
  150.8708  133.7445  159.2988 H   0  0  0  0  0  0  0  0  0  0  0  0  # atno 6909 bound_to 6896
  145.6044  139.2358  143.2227 H   0  0  0  0  0  0  0  0  0  0  0  0  # atno 7974 bound_to 7965
  156.2895  140.2222  156.5136 H   0  0  0  0  0  0  0  0  0  0  0  0  # atno 8008 bound_to 7997
  154.7588  140.0475  157.0977 H   0  0  0  0  0  0  0  0  0  0  0  0  # atno 8009 bound_to 7997
  155.0017  140.3102  155.4868 H   0  0  0  0  0  0  0  0  0  0  0  0  # atno 8010 bound_to 7997
  140.6096  143.8436  150.7050 H   0  0  0  0  0  0  0  0  0  0  0  0  # atno 10167 bound_to 10162
  156.7780  130.5321  149.5756 H   0  0  0  0  0  0  0  0  0  0  0  0  # atno 10718 bound_to 10713
  154.5618  135.5631  153.7014 H   0  0  0  0  0  0  0  0  0  0  0  0  # atno 10763 bound_to 10752
  153.0020  135.6276  154.2234 H   0  0  0  0  0  0  0  0  0  0  0  0  # atno 10764 bound_to 10752
  154.2172  135.2871  155.2917 H   0  0  0  0  0  0  0  0  0  0  0  0  # atno 10765 bound_to 10752
  140.2222  134.8187  157.3232 H   0  0  0  0  0  0  0  0  0  0  0  0  # atno 11005 bound_to 11000
  146.1552  140.6868  142.9303 LP  0  0  0  0  0  0  0  0  0  0  0  0  # atno 17320 bound_to 7965
  144.7296  140.4631  143.6947 LP  0  0  0  0  0  0  0  0  0  0  0  0  # atno 17321 bound_to 7965
  140.2001  143.3966  152.1798 LP  0  0  0  0  0  0  0  0  0  0  0  0  # atno 17342 bound_to 10162
  139.5351  144.7200  151.4922 LP  0  0  0  0  0  0  0  0  0  0  0  0  # atno 17343 bound_to 10162
  156.1236  130.6127  151.0230 LP  0  0  0  0  0  0  0  0  0  0  0  0  # atno 17370 bound_to 10713
  157.6660  131.0871  150.7728 LP  0  0  0  0  0  0  0  0  0  0  0  0  # atno 17371 bound_to 10713
  140.1837  134.4457  155.7756 LP  0  0  0  0  0  0  0  0  0  0  0  0  # atno 17394 bound_to 11000
  141.2222  133.6995  156.7912 LP  0  0  0  0  0  0  0  0  0  0  0  0  # atno 17395 bound_to 11000

$$$$
