AV-unprocessed.smi:171|AV-procd|sdf|1417|dock9
  -GOLD-   2262019183D 1   1.00000     0.00000
 Structure written by MMmdl.
 56 59  0  0  0  0  0  0  0  0  1 V2000
  151.2369  144.5225  158.6384 C   0  0  0  0  0  0  0  0  0  0  0  0
  150.9206  143.0274  158.4647 C   0  0  0  0  0  0  0  0  0  0  0  0
  151.9882  142.1685  159.1593 C   0  0  0  0  0  0  0  0  0  0  0  0
  150.7755  142.6172  156.9802 C   0  0  0  0  0  0  0  0  0  0  0  0
  150.2538  141.1801  156.7348 C   0  0  1  0  0  0  0  0  0  0  0  0
  149.8330  141.0081  155.2576 C   0  0  0  0  0  0  0  0  0  0  0  0
  148.8400  141.5988  154.8379 O   0  0  0  0  0  0  0  0  0  0  0  0
  150.5613  140.2100  154.4558 N   0  0  0  0  0  0  0  0  0  0  0  0
  151.7442  139.4463  154.8526 C   0  0  0  0  0  0  0  0  0  0  0  0
  152.3415  139.9245  156.1870 C   0  0  0  0  0  0  0  0  0  0  0  0
  151.2738  140.2021  157.1424 N   0  0  0  0  0  0  0  0  0  0  0  0
  150.8979  139.1419  157.9002 C   0  0  0  0  0  0  0  0  0  0  0  0
  151.6797  138.7253  158.9313 N   0  0  0  0  0  0  0  0  0  0  0  0
  151.3041  137.6855  159.6817 C   0  0  0  0  0  0  0  0  0  0  0  0
  150.2053  136.9350  159.5781 N   0  0  0  0  0  0  0  0  0  0  0  0
  149.4162  137.3519  158.5465 C   0  0  0  0  0  0  0  0  0  0  0  0
  149.6857  138.4374  157.6670 C   0  0  0  0  0  0  0  0  0  0  0  0
  148.6648  138.5581  156.7331 N   0  0  0  0  0  0  0  0  0  0  0  0
  147.8368  137.5984  157.0440 C   0  0  0  0  0  0  0  0  0  0  0  0
  148.2047  136.8302  158.1265 N   0  0  0  0  0  0  0  0  0  0  0  0
  147.4778  135.6973  158.6810 C   0  0  0  0  0  0  0  0  0  0  0  0
  146.5834  136.0521  159.8948 C   0  0  2  0  0  0  0  0  0  0  0  0
  146.0109  137.3307  159.6743 O   0  0  0  0  0  0  0  0  0  0  0  0
  147.3245  136.0815  161.2396 C   0  0  0  0  0  0  0  0  0  0  0  0
  146.6534  134.9890  162.0682 C   0  0  0  0  0  0  0  0  0  0  0  0
  145.3450  134.9137  161.5307 O   0  0  0  0  0  0  0  0  0  0  0  0
  145.4753  134.9964  160.1202 C   0  0  1  0  0  0  0  0  0  0  0  0
  144.1149  135.2564  159.4530 C   0  0  0  0  0  0  0  0  0  0  0  0
  152.1457  144.8007  158.1042 H   0  0  0  0  0  0  0  0  0  0  0  0
  151.3798  144.7727  159.6900 H   0  0  0  0  0  0  0  0  0  0  0  0
  150.4254  145.1502  158.2703 H   0  0  0  0  0  0  0  0  0  0  0  0
  149.9776  142.8274  158.9749 H   0  0  0  0  0  0  0  0  0  0  0  0
  152.9706  142.3178  158.7102 H   0  0  0  0  0  0  0  0  0  0  0  0
  151.7476  141.1075  159.0889 H   0  0  0  0  0  0  0  0  0  0  0  0
  152.0650  142.4164  160.2184 H   0  0  0  0  0  0  0  0  0  0  0  0
  150.1108  143.3279  156.4864 H   0  0  0  0  0  0  0  0  0  0  0  0
  151.7433  142.7355  156.4901 H   0  0  0  0  0  0  0  0  0  0  0  0
  149.3480  141.0571  157.3297 H   0  0  0  0  0  0  0  0  0  0  0  0
  150.2626  140.1160  153.4960 H   0  0  0  0  0  0  0  0  0  0  0  0
  151.4444  138.4013  154.9410 H   0  0  0  0  0  0  0  0  0  0  0  0
  152.4930  139.4928  154.0617 H   0  0  0  0  0  0  0  0  0  0  0  0
  153.0550  139.1910  156.5647 H   0  0  0  0  0  0  0  0  0  0  0  0
  152.9094  140.8417  156.0301 H   0  0  0  0  0  0  0  0  0  0  0  0
  151.9808  137.4168  160.4793 H   0  0  0  0  0  0  0  0  0  0  0  0
  146.9264  137.4241  156.4891 H   0  0  0  0  0  0  0  0  0  0  0  0
  146.8736  135.2605  157.8848 H   0  0  0  0  0  0  0  0  0  0  0  0
  148.2034  134.9337  158.9635 H   0  0  0  0  0  0  0  0  0  0  0  0
  145.3133  137.2386  159.0430 H   0  0  0  0  0  0  0  0  0  0  0  0
  148.3949  135.8992  161.1555 H   0  0  0  0  0  0  0  0  0  0  0  0
  147.2031  137.0446  161.7380 H   0  0  0  0  0  0  0  0  0  0  0  0
  147.1591  134.0320  161.9300 H   0  0  0  0  0  0  0  0  0  0  0  0
  146.6386  135.2176  163.1341 H   0  0  0  0  0  0  0  0  0  0  0  0
  145.8372  134.0221  159.7864 H   0  0  0  0  0  0  0  0  0  0  0  0
  144.2223  135.3585  158.3728 H   0  0  0  0  0  0  0  0  0  0  0  0
  143.6432  136.1626  159.8337 H   0  0  0  0  0  0  0  0  0  0  0  0
  143.4295  134.4298  159.6405 H   0  0  0  0  0  0  0  0  0  0  0  0
  1  2  1  0  0  0  0
  1 29  1  0  0  0  0
  1 30  1  0  0  0  0
  1 31  1  0  0  0  0
  2  3  1  0  0  0  0
  2  4  1  0  0  0  0
  2 32  1  0  0  0  0
  3 33  1  0  0  0  0
  3 34  1  0  0  0  0
  3 35  1  0  0  0  0
  4  5  1  0  0  0  0
  4 36  1  0  0  0  0
  4 37  1  0  0  0  0
  5 11  1  0  0  0  0
  5  6  1  0  0  0  0
  5 38  1  0  0  0  0
  6  7  2  0  0  0  0
  6  8  1  0  0  0  0
  8  9  1  0  0  0  0
  8 39  1  0  0  0  0
  9 10  1  0  0  0  0
  9 40  1  0  0  0  0
  9 41  1  0  0  0  0
 10 11  1  0  0  0  0
 10 42  1  0  0  0  0
 10 43  1  0  0  0  0
 11 12  1  0  0  0  0
 12 17  1  0  0  0  0
 12 13  2  0  0  0  0
 13 14  1  0  0  0  0
 14 15  2  0  0  0  0
 14 44  1  0  0  0  0
 15 16  1  0  0  0  0
 16 20  1  0  0  0  0
 16 17  2  0  0  0  0
 17 18  1  0  0  0  0
 18 19  2  0  0  0  0
 19 20  1  0  0  0  0
 19 45  1  0  0  0  0
 20 21  1  0  0  0  0
 21 22  1  0  0  0  0
 21 46  1  0  0  0  0
 21 47  1  0  0  0  0
 22 27  1  0  0  0  0
 22 23  1  0  0  0  0
 22 24  1  0  0  0  0
 23 48  1  0  0  0  0
 24 25  1  0  0  0  0
 24 49  1  0  0  0  0
 24 50  1  0  0  0  0
 25 26  1  0  0  0  0
 25 51  1  0  0  0  0
 25 52  1  0  0  0  0
 26 27  1  0  0  0  0
 27 28  1  0  0  0  0
 27 53  1  0  0  0  0
 28 54  1  0  0  0  0
 28 55  1  0  0  0  0
 28 56  1  0  0  0  0
M  END
> <s_m_source_file>
AV-unprocessed.smi

> <i_m_source_file_index>
171

> <i_lp_mmshare_version>
43012

> <i_f3d_flags>
0

> <s_epik_input>
W0NIM11bQ0hdKFtDSDNdKVtDSDJdW0NAQEhdMUMoPU8pW05IXVtDSDJdW0NIMl1OMWMobltjSF1uMiljKGMyMyluW2NIXW4zW0NIMl1bQ0BAXTQoW09IXSlbQ0gyXVtDSDJdT1tDQEhdNFtDSDNd

> <s_epik_cmdline>
J2VwaWtfcHl0aG9uJywgJy1waCcsICc3LjAnLCAnLXRuJywgJzgnLCAnLW1hJywgJzIwMCcsICctbWV0YWxfYmluZGluZycsICctaW1hZScsICc8aW5maWxlLm1hZT4nLCAnLW9tYWUnLCAnPG91dGZpbGUubWFlPic=

> <r_lp_tautomer_probability>
1

> <r_epik_Ionization_Penalty>
0.000670584

> <r_epik_Ionization_Penalty_Charging>
0

> <r_epik_Ionization_Penalty_Neutral>
0.000670584

> <r_epik_State_Penalty>
0.000304767

> <r_epik_Charging_Adjusted_Penalty>
0.000304767

> <i_epik_Tot_Q>
0

> <i_epik_Tot_abs_Q>
0

> <r_epik_Metal_State_Penalty>
-0

> <b_epik_Metal_Only>
0

> <s_lp_Force_Field>
OPLS_2005

> <r_lp_Energy>
42.7698

> <b_lp_Chiralities_Consistent>
1

> <s_lp_Variant>
AV-unprocessed.smi:171-4

> <Gold.Version>
5.8.1

> <Gold.Id.Protein>
6NUR|6NUR_protein|mol2

> <Gold.PLP.Fitness>
47.3275

> <Gold.PLP.PLP>
-44.6097

> <Gold.PLP.part.hbond>
-2.0907

> <Gold.PLP.part.metal>
0.0000

> <Gold.PLP.part.buried>
-5.8929

> <Gold.PLP.part.nonpolar>
-38.5335

> <Gold.PLP.part.repulsive>
1.7022

> <Gold.PLP.ligand.clash>
0.0000

> <Gold.PLP.ligand.torsion>
1.7954

> <Gold.PLP.Chemscore.Hbond>
2.0000

> <Gold.PLP.Chemscore.CHOScore>
0.0000

> <Gold.PLP.Chemscore.Metal>
0.0000

> <Gold.Chemscore.Hbonds>
donor molecule, donor type, donor heavy atom, donor atom, acceptor molecule, acceptor atom, score
      L1  H     8    39       P1  7957  0.03
      P1  H  6896  6909       L1    15  0.81
      P1  H  6934  6947       L1    23  0.10

> <Gold.PLP.Chemscore.Internal.Correction>
0.3085

> <Gold.Rescore>
     Score         DG    S(hbond)    S(metal)    S(lipo)     H(rot)  DE(clash)    DE(int)     intcor
     13.99     -16.81       1.54        0.00     103.22       2.29       0.23       2.60       ----

> <Gold.Chemscore.Fitness>
13.9851

> <Gold.Chemscore.DG>
-16.8146

> <Gold.Chemscore.ZeroCoef>
-5.4800

> <Gold.Chemscore.Hbond>
1.5352

> <Gold.Chemscore.Metal>
0.0000

> <Gold.Chemscore.Lipo>
103.2191

> <Gold.Chemscore.Internal_Hbond>
0.0000

> <Gold.Chemscore.DEClash>
0.2314

> <Gold.Chemscore.DEInternal>
2.5981

> <Gold.Chemscore.Rot>
2.2928

> <Gold.Chemscore.Internal.Correction>
   9.000000E+99

> <Gold.Chemscore.Hbonds>
donor molecule, donor type, donor heavy atom, donor atom, acceptor molecule, acceptor atom, score
      L1  H     8    39       P1  7957  0.09
      P1  H  6896  6909       L1    15  0.32
      P1  H  6934  6947       L1    23  0.10

> <Gold.Chemscore.Hbond.Weighted>
-5.1276

> <Gold.Chemscore.Metal.Weighted>
-0.0000

> <Gold.Chemscore.Lipo.Weighted>
-12.0766

> <Gold.Chemscore.Internal_Hbond.Weighted>
0.0000

> <Gold.Chemscore.DEClash.Weighted>
0.2314

> <Gold.Chemscore.DEInternal.Weighted>
2.5981

> <Gold.Chemscore.Rot.Weighted>
5.8696

> <Gold.Chemscore.Internal.Correction.Weighted>
   9.000000E+99

> <Gold.Protein.RotatedTorsions>
[ 6907 6896 6895 6894 ] final   78.76 input  -60.11 | X-H torsion
[ 7974 7965 7964 7962 ] final  -99.21 input  175.53 | X-H torsion
[ 8008 7997 7996 7995 ] final   64.21 input   59.86 | X-H torsion
[ 10167 10162 10161 10158 ] final  163.69 input  -65.29 | X-H torsion
[ 10718 10713 10712 10709 ] final   62.38 input   66.30 | X-H torsion
[ 10763 10752 10751 10750 ] final  169.85 input  -60.55 | X-H torsion
[ 11005 11000 10999 10996 ] final   56.33 input  -57.11 | X-H torsion

> <Gold.Protein.ActiveResidues>
 VAL166  LYS551  ARG553  GLY616  TRP617  ASP618  TYR619  PRO620  LYS621  CYS622 
 ASP623  PHE694  ASN695  SER759  ASP760  ASP761  ALA762  ILE779  LEU786  VAL792 
 PHE793  MET794  SER795  GLU796  ALA797  LYS798  CYS799  TRP800  GLU811  SER814 

> <Gold.Protein.RotatedAtoms>
  152.5172  134.3615  159.9286 H   0  0  0  0  0  0  0  0  0  0  0  0  # atno 6907 bound_to 6896
  151.3567  133.3898  159.2693 H   0  0  0  0  0  0  0  0  0  0  0  0  # atno 6908 bound_to 6896
  150.9684  134.9080  159.7831 H   0  0  0  0  0  0  0  0  0  0  0  0  # atno 6909 bound_to 6896
  145.3106  140.9399  143.2772 H   0  0  0  0  0  0  0  0  0  0  0  0  # atno 7974 bound_to 7965
  155.6425  140.3497  155.4720 H   0  0  0  0  0  0  0  0  0  0  0  0  # atno 8008 bound_to 7997
  155.9914  140.1194  157.0658 H   0  0  0  0  0  0  0  0  0  0  0  0  # atno 8009 bound_to 7997
  154.4220  140.1118  156.5557 H   0  0  0  0  0  0  0  0  0  0  0  0  # atno 8010 bound_to 7997
  139.4877  144.4311  151.9069 H   0  0  0  0  0  0  0  0  0  0  0  0  # atno 10167 bound_to 10162
  157.5897  130.9047  149.9581 H   0  0  0  0  0  0  0  0  0  0  0  0  # atno 10718 bound_to 10713
  154.3891  135.2754  155.2165 H   0  0  0  0  0  0  0  0  0  0  0  0  # atno 10763 bound_to 10752
  154.4239  135.5993  153.6030 H   0  0  0  0  0  0  0  0  0  0  0  0  # atno 10764 bound_to 10752
  152.9832  135.5979  154.4144 H   0  0  0  0  0  0  0  0  0  0  0  0  # atno 10765 bound_to 10752
  140.0537  134.5700  155.9233 H   0  0  0  0  0  0  0  0  0  0  0  0  # atno 11005 bound_to 11000
  144.9019  139.4639  143.6628 LP  0  0  0  0  0  0  0  0  0  0  0  0  # atno 17320 bound_to 7965
  146.3119  139.7778  142.9013 LP  0  0  0  0  0  0  0  0  0  0  0  0  # atno 17321 bound_to 7965
  140.3759  144.2797  150.5914 LP  0  0  0  0  0  0  0  0  0  0  0  0  # atno 17342 bound_to 10162
  140.5277  143.2250  151.8288 LP  0  0  0  0  0  0  0  0  0  0  0  0  # atno 17343 bound_to 10162
  156.0950  130.3660  150.0324 LP  0  0  0  0  0  0  0  0  0  0  0  0  # atno 17370 bound_to 10713
  156.8449  130.9438  151.3629 LP  0  0  0  0  0  0  0  0  0  0  0  0  # atno 17371 bound_to 10713
  141.1942  133.6582  156.5584 LP  0  0  0  0  0  0  0  0  0  0  0  0  # atno 17394 bound_to 11000
  140.3877  134.7467  157.4702 LP  0  0  0  0  0  0  0  0  0  0  0  0  # atno 17395 bound_to 11000

$$$$
