AV-unprocessed.smi:1|AV-procd|sdf|18|dock5
  -GOLD-   2262015113D 1   1.00000     0.00000
 Structure written by MMmdl.
 56 61  0  0  0  0  0  0  0  0  2 V2000
  154.6715  140.4498  160.5989 O   0  0  0  0  0  0  0  0  0  0  0  0
  153.9113  140.9508  159.7678 C   0  0  0  0  0  0  0  0  0  0  0  0
  153.5593  140.4547  158.5547 N   0  5  0  0  0  0  0  0  0  0  0  0
  153.1602  139.1784  158.4426 C   0  0  0  0  0  0  0  0  0  0  0  0
  153.9813  138.1669  158.8232 N   0  0  0  0  0  0  0  0  0  0  0  0
  153.5805  136.8946  158.7196 C   0  0  0  0  0  0  0  0  0  0  0  0
  152.4145  136.4125  158.2776 N   0  0  0  0  0  0  0  0  0  0  0  0
  151.5764  137.4216  157.9002 C   0  0  0  0  0  0  0  0  0  0  0  0
  151.8751  138.8144  157.9552 C   0  0  0  0  0  0  0  0  0  0  0  0
  150.8024  139.5662  157.4986 N   0  0  0  0  0  0  0  0  0  0  0  0
  149.9210  138.6172  157.1904 C   0  0  0  0  0  0  0  0  0  0  0  0
  150.2873  137.3374  157.4011 N   0  0  0  0  0  0  0  0  0  0  0  0
  149.4905  136.1063  157.1307 C   0  0  1  0  0  0  0  0  0  0  0  0
  148.2482  136.4928  156.6346 O   0  0  0  0  0  0  0  0  0  0  0  0
  147.8217  135.5168  155.6986 C   0  0  1  0  0  0  0  0  0  0  0  0
  146.6727  136.0393  154.8247 C   0  0  0  0  0  0  0  0  0  0  0  0
  146.3702  135.1286  153.7790 O   0  0  0  0  0  0  0  0  0  0  0  0
  145.4603  135.4567  152.8409 C   0  0  0  0  0  0  0  0  0  0  0  0
  144.9812  136.5861  152.7196 O   0  0  0  0  0  0  0  0  0  0  0  0
  145.0907  134.3097  151.9632 C   0  0  0  0  0  0  0  0  0  0  0  0
  144.1369  134.5010  150.9365 C   0  0  0  0  0  0  0  0  0  0  0  0
  143.7662  133.4347  150.0942 C   0  0  0  0  0  0  0  0  0  0  0  0
  144.3431  132.1634  150.2704 C   0  0  0  0  0  0  0  0  0  0  0  0
  145.2894  131.9593  151.2915 C   0  0  0  0  0  0  0  0  0  0  0  0
  145.6614  133.0248  152.1343 C   0  0  0  0  0  0  0  0  0  0  0  0
  149.1050  135.1185  154.9642 C   0  0  2  0  0  0  0  0  0  0  0  0
  149.0499  133.7883  154.4807 O   0  0  0  0  0  0  0  0  0  0  0  0
  149.7887  132.7758  155.5843 S   0  0  0  0  0  0  0  0  0  0  0  0
  148.7411  132.0306  156.2986 O   0  0  0  0  0  0  0  0  0  0  0  0
  150.9171  132.1112  154.9151 O   0  0  0  0  0  0  0  0  0  0  0  0
  150.4017  133.9325  156.6212 O   0  0  0  0  0  0  0  0  0  0  0  0
  150.1665  135.2177  156.0732 C   0  0  2  0  0  0  0  0  0  0  0  0
  153.2095  142.2379  160.1103 C   0  0  0  0  0  0  0  0  0  0  0  0
  153.0262  142.5969  161.4653 C   0  0  0  0  0  0  0  0  0  0  0  0
  152.3954  143.8092  161.8064 C   0  0  0  0  0  0  0  0  0  0  0  0
  151.9491  144.6807  160.7953 C   0  0  0  0  0  0  0  0  0  0  0  0
  152.1381  144.3406  159.4428 C   0  0  0  0  0  0  0  0  0  0  0  0
  152.7687  143.1284  159.1009 C   0  0  0  0  0  0  0  0  0  0  0  0
  154.2986  136.1573  159.0442 H   0  0  0  0  0  0  0  0  0  0  0  0
  148.9496  138.8687  156.7904 H   0  0  0  0  0  0  0  0  0  0  0  0
  149.3813  135.6163  158.0995 H   0  0  0  0  0  0  0  0  0  0  0  0
  147.4579  134.6667  156.2784 H   0  0  0  0  0  0  0  0  0  0  0  0
  145.7798  136.1768  155.4358 H   0  0  0  0  0  0  0  0  0  0  0  0
  146.9397  137.0153  154.4166 H   0  0  0  0  0  0  0  0  0  0  0  0
  143.6811  135.4686  150.7818 H   0  0  0  0  0  0  0  0  0  0  0  0
  143.0383  133.5931  149.3121 H   0  0  0  0  0  0  0  0  0  0  0  0
  144.0597  131.3458  149.6241 H   0  0  0  0  0  0  0  0  0  0  0  0
  145.7321  130.9839  151.4291 H   0  0  0  0  0  0  0  0  0  0  0  0
  146.3873  132.8339  152.9111 H   0  0  0  0  0  0  0  0  0  0  0  0
  149.3451  135.8134  154.1594 H   0  0  0  0  0  0  0  0  0  0  0  0
  151.1023  135.6460  155.7118 H   0  0  0  0  0  0  0  0  0  0  0  0
  153.3649  141.9398  162.2533 H   0  0  0  0  0  0  0  0  0  0  0  0
  152.2555  144.0703  162.8448 H   0  0  0  0  0  0  0  0  0  0  0  0
  151.4660  145.6104  161.0569 H   0  0  0  0  0  0  0  0  0  0  0  0
  151.8016  145.0105  158.6655 H   0  0  0  0  0  0  0  0  0  0  0  0
  152.9139  142.8917  158.0567 H   0  0  0  0  0  0  0  0  0  0  0  0
  1  2  2  0  0  0  0
  2  3  1  0  0  0  0
  2 33  1  0  0  0  0
  3  4  1  0  0  0  0
  4  9  1  0  0  0  0
  4  5  2  0  0  0  0
  5  6  1  0  0  0  0
  6  7  2  0  0  0  0
  6 39  1  0  0  0  0
  7  8  1  0  0  0  0
  8 12  1  0  0  0  0
  8  9  2  0  0  0  0
  9 10  1  0  0  0  0
 10 11  2  0  0  0  0
 11 12  1  0  0  0  0
 11 40  1  0  0  0  0
 12 13  1  0  0  0  0
 13 32  1  0  0  0  0
 13 14  1  0  0  0  0
 13 41  1  0  0  0  0
 14 15  1  0  0  0  0
 15 16  1  0  0  0  0
 15 26  1  0  0  0  0
 15 42  1  0  0  0  0
 16 17  1  0  0  0  0
 16 43  1  0  0  0  0
 16 44  1  0  0  0  0
 17 18  1  0  0  0  0
 18 19  2  0  0  0  0
 18 20  1  0  0  0  0
 20 25  1  0  0  0  0
 20 21  2  0  0  0  0
 21 22  1  0  0  0  0
 21 45  1  0  0  0  0
 22 23  2  0  0  0  0
 22 46  1  0  0  0  0
 23 24  1  0  0  0  0
 23 47  1  0  0  0  0
 24 25  2  0  0  0  0
 24 48  1  0  0  0  0
 25 49  1  0  0  0  0
 26 32  1  0  0  0  0
 26 27  1  0  0  0  0
 26 50  1  0  0  0  0
 27 28  1  0  0  0  0
 28 29  2  0  0  0  0
 28 30  2  0  0  0  0
 28 31  1  0  0  0  0
 31 32  1  0  0  0  0
 32 51  1  0  0  0  0
 33 38  1  0  0  0  0
 33 34  2  0  0  0  0
 34 35  1  0  0  0  0
 34 52  1  0  0  0  0
 35 36  2  0  0  0  0
 35 53  1  0  0  0  0
 36 37  1  0  0  0  0
 36 54  1  0  0  0  0
 37 38  2  0  0  0  0
 37 55  1  0  0  0  0
 38 56  1  0  0  0  0
M  CHG  1   3  -1
M  END
> <s_m_source_file>
AV-unprocessed.smi

> <i_m_source_file_index>
1

> <i_lp_mmshare_version>
43012

> <i_f3d_flags>
0

> <s_epik_input>
W2NIXTFbY0hdW2NIXVtjSF1bY0hdYzFDKD1PKVtOSF1jKG5bY0hdbjIpYyhjMjMpbltjSF1uM1tDQEBIXShbQ0BIXShbQ0BIXTQ1KU9TKE81KSg9Tyk9TylPW0NASF00W0NIMl1PQyg9TyljNltjSF1bY0hdW2NIXVtjSF1bY0hdNg==

> <s_epik_cmdline>
J2VwaWtfcHl0aG9uJywgJy1waCcsICc3LjAnLCAnLXRuJywgJzgnLCAnLW1hJywgJzIwMCcsICctbWV0YWxfYmluZGluZycsICctaW1hZScsICc8aW5maWxlLm1hZT4nLCAnLW9tYWUnLCAnPG91dGZpbGUubWFlPic=

> <r_lp_tautomer_probability>
1

> <r_epik_Ionization_Penalty>
4.39121

> <r_epik_Ionization_Penalty_Charging>
3.39398

> <r_epik_Ionization_Penalty_Neutral>
0.997232

> <r_epik_State_Penalty>
3.39839

> <r_epik_Charging_Adjusted_Penalty>
6.79237

> <i_epik_Tot_Q>
-1

> <i_epik_Tot_abs_Q>
1

> <r_epik_Metal_State_Penalty>
0.497663

> <b_epik_Metal_Only>
1

> <s_epik_Chemistry_Notes>
This compound has an ester and may undergo hydrolysis at high or low pH. This compound contains an acetal/aminal-like group ( X-CH(R)-Y where X, Y are N, S, or O) that may be acid/base labile, releasing an aldehyde.

> <s_lp_Force_Field>
OPLS_2005

> <r_lp_Energy>
46.6749

> <b_lp_Chiralities_Consistent>
1

> <s_lp_Variant>
AV-unprocessed.smi:1-18

> <Gold.Version>
5.8.1

> <Gold.Id.Protein>
6NUR|6NUR_protein|mol2

> <Gold.PLP.Fitness>
60.9142

> <Gold.PLP.PLP>
-58.6306

> <Gold.PLP.part.hbond>
-2.6908

> <Gold.PLP.part.metal>
0.0000

> <Gold.PLP.part.buried>
-8.8785

> <Gold.PLP.part.nonpolar>
-47.3834

> <Gold.PLP.part.repulsive>
0.3700

> <Gold.PLP.ligand.clash>
0.0000

> <Gold.PLP.ligand.torsion>
1.4044

> <Gold.PLP.Chemscore.Hbond>
1.4240

> <Gold.PLP.Chemscore.CHOScore>
0.0000

> <Gold.PLP.Chemscore.Metal>
0.0000

> <Gold.Chemscore.Hbonds>
donor molecule, donor type, donor heavy atom, donor atom, acceptor molecule, acceptor atom, score
      P1  H  6896  6909       L1     7  0.23
      P1  H  7997  8010       L1     3  0.45

> <Gold.PLP.Chemscore.Internal.Correction>
0.8204

> <Gold.Rescore>
     Score         DG    S(hbond)    S(metal)    S(lipo)     H(rot)  DE(clash)    DE(int)     intcor
     14.09     -16.80       0.25        0.00     135.69       2.11       0.13       2.58       ----

> <Gold.Chemscore.Fitness>
14.0947

> <Gold.Chemscore.DG>
-16.7967

> <Gold.Chemscore.ZeroCoef>
-5.4800

> <Gold.Chemscore.Hbond>
0.2549

> <Gold.Chemscore.Metal>
0.0000

> <Gold.Chemscore.Lipo>
135.6932

> <Gold.Chemscore.Internal_Hbond>
0.0000

> <Gold.Chemscore.DEClash>
0.1268

> <Gold.Chemscore.DEInternal>
2.5752

> <Gold.Chemscore.Rot>
2.1136

> <Gold.Chemscore.Internal.Correction>
   9.000000E+99

> <Gold.Chemscore.Hbonds>
donor molecule, donor type, donor heavy atom, donor atom, acceptor molecule, acceptor atom, score
      P1  H  6896  6909       L1     7  0.08

> <Gold.Chemscore.Hbond.Weighted>
-0.8513

> <Gold.Chemscore.Metal.Weighted>
-0.0000

> <Gold.Chemscore.Lipo.Weighted>
-15.8761

> <Gold.Chemscore.Internal_Hbond.Weighted>
0.0000

> <Gold.Chemscore.DEClash.Weighted>
0.1268

> <Gold.Chemscore.DEInternal.Weighted>
2.5752

> <Gold.Chemscore.Rot.Weighted>
5.4107

> <Gold.Chemscore.Internal.Correction.Weighted>
   9.000000E+99

> <Gold.Protein.RotatedTorsions>
[ 6907 6896 6895 6894 ] final  128.39 input  -60.11 | X-H torsion
[ 7974 7965 7964 7962 ] final -176.50 input  175.53 | X-H torsion
[ 8008 7997 7996 7995 ] final   16.78 input   59.86 | X-H torsion
[ 10167 10162 10161 10158 ] final   76.09 input  -65.29 | X-H torsion
[ 10718 10713 10712 10709 ] final   77.90 input   66.30 | X-H torsion
[ 10763 10752 10751 10750 ] final  119.68 input  -60.55 | X-H torsion
[ 11005 11000 10999 10996 ] final   46.83 input  -57.11 | X-H torsion

> <Gold.Protein.ActiveResidues>
 VAL166  LYS551  ARG553  GLY616  TRP617  ASP618  TYR619  PRO620  LYS621  CYS622 
 ASP623  PHE694  ASN695  SER759  ASP760  ASP761  ALA762  ILE779  LEU786  VAL792 
 PHE793  MET794  SER795  GLU796  ALA797  LYS798  CYS799  TRP800  GLU811  SER814 

> <Gold.Protein.RotatedAtoms>
  152.3723  133.6435  159.6096 H   0  0  0  0  0  0  0  0  0  0  0  0  # atno 6907 bound_to 6896
  150.7678  133.9249  159.3418 H   0  0  0  0  0  0  0  0  0  0  0  0  # atno 6908 bound_to 6896
  151.7070  135.0921  160.0312 H   0  0  0  0  0  0  0  0  0  0  0  0  # atno 6909 bound_to 6896
  144.7127  140.1160  143.6408 H   0  0  0  0  0  0  0  0  0  0  0  0  # atno 7974 bound_to 7965
  154.8819  140.2974  155.5420 H   0  0  0  0  0  0  0  0  0  0  0  0  # atno 8008 bound_to 7997
  156.3022  140.2440  156.3757 H   0  0  0  0  0  0  0  0  0  0  0  0  # atno 8009 bound_to 7997
  154.8708  140.0401  157.1712 H   0  0  0  0  0  0  0  0  0  0  0  0  # atno 8010 bound_to 7997
  139.9959  144.5722  150.7778 H   0  0  0  0  0  0  0  0  0  0  0  0  # atno 10167 bound_to 10162
  157.6726  130.9843  150.1708 H   0  0  0  0  0  0  0  0  0  0  0  0  # atno 10718 bound_to 10713
  153.5867  135.3473  155.2895 H   0  0  0  0  0  0  0  0  0  0  0  0  # atno 10763 bound_to 10752
  154.8659  135.4195  154.2561 H   0  0  0  0  0  0  0  0  0  0  0  0  # atno 10764 bound_to 10752
  153.3359  135.7047  153.6978 H   0  0  0  0  0  0  0  0  0  0  0  0  # atno 10765 bound_to 10752
  140.1333  134.4677  155.8504 H   0  0  0  0  0  0  0  0  0  0  0  0  # atno 11005 bound_to 11000
  145.9412  139.2670  143.1267 LP  0  0  0  0  0  0  0  0  0  0  0  0  # atno 17320 bound_to 7965
  145.9421  140.8972  143.0302 LP  0  0  0  0  0  0  0  0  0  0  0  0  # atno 17321 bound_to 7965
  140.7437  143.2850  151.3489 LP  0  0  0  0  0  0  0  0  0  0  0  0  # atno 17342 bound_to 10162
  139.6306  144.0728  152.2473 LP  0  0  0  0  0  0  0  0  0  0  0  0  # atno 17343 bound_to 10162
  156.2463  130.3696  149.8282 LP  0  0  0  0  0  0  0  0  0  0  0  0  # atno 17370 bound_to 10713
  156.6067  130.8569  151.3445 LP  0  0  0  0  0  0  0  0  0  0  0  0  # atno 17371 bound_to 10713
  141.2174  133.6804  156.7111 LP  0  0  0  0  0  0  0  0  0  0  0  0  # atno 17394 bound_to 11000
  140.2814  134.8314  157.3936 LP  0  0  0  0  0  0  0  0  0  0  0  0  # atno 17395 bound_to 11000

$$$$
