AV-unprocessed.smi:244|AV-procd|sdf|1865|dock9
  -GOLD-   2262020503D 1   1.00000     0.00000
 Structure written by MMmdl.
 57 61  0  0  0  0  0  0  0  0  2 V2000
  137.2209  139.1132  153.8420 C   0  0  0  0  0  0  0  0  0  0  0  0
  137.2509  137.7368  154.3889 N   0  3  2  0  0  0  0  0  0  0  0  0
  136.2781  137.5129  155.4896 C   0  0  0  0  0  0  0  0  0  0  0  0
  136.7568  138.1224  156.8202 C   0  0  0  0  0  0  0  0  0  0  0  0
  138.1500  137.5942  157.1829 C   0  0  2  0  0  0  0  0  0  0  0  0
  138.5972  138.2131  158.3838 O   0  0  0  0  0  0  0  0  0  0  0  0
  139.8587  137.7015  158.8013 C   0  0  0  0  0  0  0  0  0  0  0  0
  140.9073  137.9836  157.7137 C   0  0  0  0  0  0  0  0  0  0  0  0
  140.4773  137.4260  156.4333 N   0  0  0  0  0  0  0  0  0  0  0  0
  141.4213  137.5246  155.4694 C   0  0  0  0  0  0  0  0  0  0  0  0
  142.1449  138.6671  155.3339 N   0  0  0  0  0  0  0  0  0  0  0  0
  143.0615  138.7640  154.3658 C   0  0  0  0  0  0  0  0  0  0  0  0
  143.3986  137.8613  153.4416 N   0  0  0  0  0  0  0  0  0  0  0  0
  142.6676  136.7172  153.5741 C   0  0  0  0  0  0  0  0  0  0  0  0
  141.6644  136.4700  154.5513 C   0  0  0  0  0  0  0  0  0  0  0  0
  141.1203  135.2054  154.3716 N   0  0  0  0  0  0  0  0  0  0  0  0
  141.7705  134.7272  153.3455 C   0  0  0  0  0  0  0  0  0  0  0  0
  142.7247  135.5644  152.8106 N   0  0  0  0  0  0  0  0  0  0  0  0
  143.5909  135.2867  151.6750 C   0  0  0  0  0  0  0  0  0  0  0  0
  144.4000  133.9719  151.8053 C   0  0  0  0  0  0  0  0  0  0  0  0
  144.6285  133.7391  153.1842 O   0  0  0  0  0  0  0  0  0  0  0  0
  143.6522  132.7525  151.2226 C   0  0  0  0  0  0  0  0  0  0  0  0
  144.5439  131.4997  151.1618 C   0  0  0  0  0  0  0  0  0  0  0  0
  145.7329  131.7797  150.4334 O   0  0  0  0  0  0  0  0  0  0  0  0
  146.5333  132.7786  151.0533 C   0  0  0  0  0  0  0  0  0  0  0  0
  145.7658  134.1118  151.1033 C   0  0  0  0  0  0  0  0  0  0  0  0
  139.1457  137.8952  156.0415 C   0  0  1  0  0  0  0  0  0  0  0  0
  138.6184  137.2624  154.7272 C   0  0  0  0  0  0  0  0  0  0  0  0
  137.5412  139.8508  154.5776 H   0  0  0  0  0  0  0  0  0  0  0  0
  136.2129  139.3740  153.5184 H   0  0  0  0  0  0  0  0  0  0  0  0
  137.8759  139.1944  152.9740 H   0  0  0  0  0  0  0  0  0  0  0  0
  135.3014  137.9127  155.2141 H   0  0  0  0  0  0  0  0  0  0  0  0
  136.1445  136.4373  155.6128 H   0  0  0  0  0  0  0  0  0  0  0  0
  136.7765  139.2105  156.7518 H   0  0  0  0  0  0  0  0  0  0  0  0
  136.0497  137.8778  157.6132 H   0  0  0  0  0  0  0  0  0  0  0  0
  138.0830  136.5160  157.3437 H   0  0  0  0  0  0  0  0  0  0  0  0
  140.1466  138.1829  159.7359 H   0  0  0  0  0  0  0  0  0  0  0  0
  139.7844  136.6318  159.0035 H   0  0  0  0  0  0  0  0  0  0  0  0
  141.0507  139.0613  157.6218 H   0  0  0  0  0  0  0  0  0  0  0  0
  141.8677  137.5536  158.0022 H   0  0  0  0  0  0  0  0  0  0  0  0
  143.6016  139.6984  154.3240 H   0  0  0  0  0  0  0  0  0  0  0  0
  141.5757  133.7403  152.9512 H   0  0  0  0  0  0  0  0  0  0  0  0
  142.9677  135.2537  150.7802 H   0  0  0  0  0  0  0  0  0  0  0  0
  144.2647  136.1347  151.5423 H   0  0  0  0  0  0  0  0  0  0  0  0
  143.9358  133.1882  153.5154 H   0  0  0  0  0  0  0  0  0  0  0  0
  142.7553  132.5317  151.8024 H   0  0  0  0  0  0  0  0  0  0  0  0
  143.3152  132.9875  150.2120 H   0  0  0  0  0  0  0  0  0  0  0  0
  144.7919  131.1448  152.1633 H   0  0  0  0  0  0  0  0  0  0  0  0
  144.0111  130.6889  150.6647 H   0  0  0  0  0  0  0  0  0  0  0  0
  146.8291  132.4559  152.0527 H   0  0  0  0  0  0  0  0  0  0  0  0
  147.4509  132.8990  150.4773 H   0  0  0  0  0  0  0  0  0  0  0  0
  145.6115  134.4577  150.0802 H   0  0  0  0  0  0  0  0  0  0  0  0
  146.3721  134.8744  151.5941 H   0  0  0  0  0  0  0  0  0  0  0  0
  139.2096  138.9765  155.9108 H   0  0  0  0  0  0  0  0  0  0  0  0
  138.5918  136.1763  154.8268 H   0  0  0  0  0  0  0  0  0  0  0  0
  139.2786  137.4774  153.8861 H   0  0  0  0  0  0  0  0  0  0  0  0
  136.9395  137.1510  153.6270 H   0  0  0  0  0  0  0  0  0  0  0  0
  1  2  1  0  0  0  0
  1 29  1  0  0  0  0
  1 30  1  0  0  0  0
  1 31  1  0  0  0  0
  2 28  1  0  0  0  0
  2  3  1  0  0  0  0
  2 57  1  0  0  0  0
  3  4  1  0  0  0  0
  3 32  1  0  0  0  0
  3 33  1  0  0  0  0
  4  5  1  0  0  0  0
  4 34  1  0  0  0  0
  4 35  1  0  0  0  0
  5 27  1  0  0  0  0
  5  6  1  0  0  0  0
  5 36  1  0  0  0  0
  6  7  1  0  0  0  0
  7  8  1  0  0  0  0
  7 37  1  0  0  0  0
  7 38  1  0  0  0  0
  8  9  1  0  0  0  0
  8 39  1  0  0  0  0
  8 40  1  0  0  0  0
  9 10  1  0  0  0  0
  9 27  1  0  0  0  0
 10 15  1  0  0  0  0
 10 11  2  0  0  0  0
 11 12  1  0  0  0  0
 12 13  2  0  0  0  0
 12 41  1  0  0  0  0
 13 14  1  0  0  0  0
 14 18  1  0  0  0  0
 14 15  2  0  0  0  0
 15 16  1  0  0  0  0
 16 17  2  0  0  0  0
 17 18  1  0  0  0  0
 17 42  1  0  0  0  0
 18 19  1  0  0  0  0
 19 20  1  0  0  0  0
 19 43  1  0  0  0  0
 19 44  1  0  0  0  0
 20 26  1  0  0  0  0
 20 21  1  0  0  0  0
 20 22  1  0  0  0  0
 21 45  1  0  0  0  0
 22 23  1  0  0  0  0
 22 46  1  0  0  0  0
 22 47  1  0  0  0  0
 23 24  1  0  0  0  0
 23 48  1  0  0  0  0
 23 49  1  0  0  0  0
 24 25  1  0  0  0  0
 25 26  1  0  0  0  0
 25 50  1  0  0  0  0
 25 51  1  0  0  0  0
 26 52  1  0  0  0  0
 26 53  1  0  0  0  0
 27 28  1  0  0  0  0
 27 54  1  0  0  0  0
 28 55  1  0  0  0  0
 28 56  1  0  0  0  0
M  CHG  1   2   1
M  END
> <s_m_source_file>
AV-unprocessed.smi

> <i_m_source_file_index>
244

> <i_lp_mmshare_version>
43012

> <i_f3d_flags>
0

> <s_epik_input>
W0NIMl0xW0NIMl1OKFtDSDNdKVtDSDJdW0NAQEhdKFtDQEhdMTIpTihbQ0gyXVtDSDJdTzIpYyhuW2NIXW4zKWMoYzM0KW5bY0hdbjRbQ0gyXUM1KFtPSF0pW0NIMl1bQ0gyXU9bQ0gyXVtDSDJdNQ==

> <s_epik_cmdline>
J2VwaWtfcHl0aG9uJywgJy1waCcsICc3LjAnLCAnLXRuJywgJzgnLCAnLW1hJywgJzIwMCcsICctbWV0YWxfYmluZGluZycsICctaW1hZScsICc8aW5maWxlLm1hZT4nLCAnLW9tYWUnLCAnPG91dGZpbGUubWFlPic=

> <r_lp_tautomer_probability>
1

> <r_epik_Ionization_Penalty>
0.0136215

> <r_epik_Ionization_Penalty_Charging>
0.0131385

> <r_epik_Ionization_Penalty_Neutral>
0.000483022

> <r_epik_State_Penalty>
0.0104001

> <r_epik_Charging_Adjusted_Penalty>
0.0235387

> <i_epik_Tot_Q>
1

> <i_epik_Tot_abs_Q>
1

> <r_epik_Metal_State_Penalty>
0.0104469

> <b_epik_Metal_Only>
0

> <s_lp_Force_Field>
OPLS_2005

> <r_lp_Energy>
43.138

> <b_lp_Chiralities_Consistent>
1

> <s_lp_Variant>
AV-unprocessed.smi:244-2

> <Gold.Version>
5.8.1

> <Gold.Id.Protein>
6NUR|6NUR_protein|mol2

> <Gold.PLP.Fitness>
39.6493

> <Gold.PLP.PLP>
-35.4225

> <Gold.PLP.part.hbond>
-3.2731

> <Gold.PLP.part.metal>
0.0000

> <Gold.PLP.part.buried>
-6.0066

> <Gold.PLP.part.nonpolar>
-28.1095

> <Gold.PLP.part.repulsive>
0.9949

> <Gold.PLP.ligand.clash>
0.0000

> <Gold.PLP.ligand.torsion>
1.2577

> <Gold.PLP.Chemscore.Hbond>
1.6932

> <Gold.PLP.Chemscore.CHOScore>
0.5142

> <Gold.PLP.Chemscore.Metal>
0.0000

> <Gold.Chemscore.Hbonds>
donor molecule, donor type, donor heavy atom, donor atom, acceptor molecule, acceptor atom, score
      L1  H    21    45       P1 10957  0.36
      P1  H 11000 11005       L1    16  0.91
      L1  C    12    41       P1 10175  0.56
      L1  C    17    42       P1 10957  0.08

> <Gold.PLP.Chemscore.Internal.Correction>
0.1202

> <Gold.Rescore>
     Score         DG    S(hbond)    S(metal)    S(lipo)     H(rot)  DE(clash)    DE(int)     intcor
     12.97     -14.15       1.78        0.00      68.91       2.09       0.14       1.04       ----

> <Gold.Chemscore.Fitness>
12.9678

> <Gold.Chemscore.DG>
-14.1485

> <Gold.Chemscore.ZeroCoef>
-5.4800

> <Gold.Chemscore.Hbond>
1.7840

> <Gold.Chemscore.Metal>
0.0000

> <Gold.Chemscore.Lipo>
68.9144

> <Gold.Chemscore.Internal_Hbond>
0.0000

> <Gold.Chemscore.DEClash>
0.1386

> <Gold.Chemscore.DEInternal>
1.0421

> <Gold.Chemscore.Rot>
2.0911

> <Gold.Chemscore.Internal.Correction>
   9.000000E+99

> <Gold.Chemscore.Hbonds>
donor molecule, donor type, donor heavy atom, donor atom, acceptor molecule, acceptor atom, score
      L1  H    21    45       P1 10957  0.33
      P1  H 11000 11005       L1    16  0.87

> <Gold.Chemscore.Hbond.Weighted>
-5.9586

> <Gold.Chemscore.Metal.Weighted>
-0.0000

> <Gold.Chemscore.Lipo.Weighted>
-8.0630

> <Gold.Chemscore.Internal_Hbond.Weighted>
0.0000

> <Gold.Chemscore.DEClash.Weighted>
0.1386

> <Gold.Chemscore.DEInternal.Weighted>
1.0421

> <Gold.Chemscore.Rot.Weighted>
5.3531

> <Gold.Chemscore.Internal.Correction.Weighted>
   9.000000E+99

> <Gold.Protein.RotatedTorsions>
[ 6907 6896 6895 6894 ] final  170.61 input  -60.11 | X-H torsion
[ 7974 7965 7964 7962 ] final    1.52 input  175.53 | X-H torsion
[ 8008 7997 7996 7995 ] final  -62.13 input   59.86 | X-H torsion
[ 10167 10162 10161 10158 ] final  -66.75 input  -65.29 | X-H torsion
[ 10718 10713 10712 10709 ] final -130.12 input   66.30 | X-H torsion
[ 10763 10752 10751 10750 ] final  132.66 input  -60.55 | X-H torsion
[ 11005 11000 10999 10996 ] final   27.93 input  -57.11 | X-H torsion

> <Gold.Protein.ActiveResidues>
 VAL166  LYS551  ARG553  GLY616  TRP617  ASP618  TYR619  PRO620  LYS621  CYS622 
 ASP623  PHE694  ASN695  SER759  ASP760  ASP761  ALA762  ILE779  LEU786  VAL792 
 PHE793  MET794  SER795  GLU796  ALA797  LYS798  CYS799  TRP800  GLU811  SER814 

> <Gold.Protein.RotatedAtoms>
  151.8133  133.3384  159.3561 H   0  0  0  0  0  0  0  0  0  0  0  0  # atno 6907 bound_to 6896
  150.7318  134.5643  159.5867 H   0  0  0  0  0  0  0  0  0  0  0  0  # atno 6908 bound_to 6896
  152.3059  134.7557  160.0399 H   0  0  0  0  0  0  0  0  0  0  0  0  # atno 6909 bound_to 6896
  146.2440  140.0975  142.8349 H   0  0  0  0  0  0  0  0  0  0  0  0  # atno 7974 bound_to 7965
  154.4483  140.1003  156.6538 H   0  0  0  0  0  0  0  0  0  0  0  0  # atno 8008 bound_to 7997
  155.5368  140.3482  155.4419 H   0  0  0  0  0  0  0  0  0  0  0  0  # atno 8009 bound_to 7997
  156.0625  140.1330  156.9913 H   0  0  0  0  0  0  0  0  0  0  0  0  # atno 8010 bound_to 7997
  140.5634  143.2313  151.6683 H   0  0  0  0  0  0  0  0  0  0  0  0  # atno 10167 bound_to 10162
  156.2113  130.6920  151.0653 H   0  0  0  0  0  0  0  0  0  0  0  0  # atno 10718 bound_to 10713
  153.7944  135.3150  155.3382 H   0  0  0  0  0  0  0  0  0  0  0  0  # atno 10763 bound_to 10752
  154.8113  135.4665  154.0527 H   0  0  0  0  0  0  0  0  0  0  0  0  # atno 10764 bound_to 10752
  153.1856  135.6900  153.8507 H   0  0  0  0  0  0  0  0  0  0  0  0  # atno 10765 bound_to 10752
  140.3210  134.2544  155.7717 H   0  0  0  0  0  0  0  0  0  0  0  0  # atno 11005 bound_to 11000
  145.0597  140.9079  143.4946 LP  0  0  0  0  0  0  0  0  0  0  0  0  # atno 17320 bound_to 7965
  145.1088  139.2771  143.5648 LP  0  0  0  0  0  0  0  0  0  0  0  0  # atno 17321 bound_to 7965
  139.5081  144.3623  152.0550 LP  0  0  0  0  0  0  0  0  0  0  0  0  # atno 17342 bound_to 10162
  140.2752  144.3920  150.6137 LP  0  0  0  0  0  0  0  0  0  0  0  0  # atno 17343 bound_to 10162
  157.7040  131.0764  150.6729 LP  0  0  0  0  0  0  0  0  0  0  0  0  # atno 17370 bound_to 10713
  156.6788  130.4561  149.5634 LP  0  0  0  0  0  0  0  0  0  0  0  0  # atno 17371 bound_to 10713
  141.2086  133.7771  157.0045 LP  0  0  0  0  0  0  0  0  0  0  0  0  # atno 17394 bound_to 11000
  140.0942  134.9574  157.1824 LP  0  0  0  0  0  0  0  0  0  0  0  0  # atno 17395 bound_to 11000

$$$$
