AV-unprocessed.smi:1323|AV-procd|sdf|5467|dock2
  -GOLD-   22720 5 33D 1   1.00000     0.00000
 Structure written by MMmdl.
 45 46  0  0  0  0  0  0  0  0  1 V2000
  153.8740  140.4975  161.3916 C   0  0  0  0  0  0  0  0  0  0  0  0
  153.5587  141.9516  161.0109 C   0  0  2  0  0  0  0  0  0  0  0  0
  152.5525  142.5940  161.9866 C   0  0  0  0  0  0  0  0  0  0  0  0
  152.2943  144.0683  161.6390 C   0  0  0  0  0  0  0  0  0  0  0  0
  151.8241  144.2244  160.1851 C   0  0  0  0  0  0  0  0  0  0  0  0
  152.8157  143.5769  159.2032 C   0  0  0  0  0  0  0  0  0  0  0  0
  153.0816  142.0994  159.5460 C   0  0  2  0  0  0  0  0  0  0  0  0
  151.8624  141.3929  159.3552 O   0  0  0  0  0  0  0  0  0  0  0  0
  151.6789  140.8503  158.0573 C   0  0  0  0  0  0  0  0  0  0  0  0
  151.4734  139.3331  158.1734 C   0  0  0  0  0  0  0  0  0  0  0  0
  152.6330  138.6769  158.7699 N   0  0  0  0  0  0  0  0  0  0  0  0
  152.5994  137.5375  159.4786 C   0  0  0  0  0  0  0  0  0  0  0  0
  151.5645  136.9027  159.6867 O   0  0  0  0  0  0  0  0  0  0  0  0
  153.9487  137.0318  160.0083 C   0  0  0  0  0  0  0  0  0  0  0  0
  153.8458  136.3910  161.3301 N   0  0  0  0  0  0  0  0  0  0  0  0
  153.4093  137.1978  162.4000 C   0  0  0  0  0  0  0  0  0  0  0  0
  153.2946  136.7202  163.6492 C   0  0  0  0  0  0  0  0  0  0  0  0
  153.6344  135.3368  163.8847 C   0  0  0  0  0  0  0  0  0  0  0  0
  154.0520  134.5560  162.8684 C   0  0  0  0  0  0  0  0  0  0  0  0
  154.1728  135.0728  161.5005 C   0  0  0  0  0  0  0  0  0  0  0  0
  154.5436  134.3624  160.5663 O   0  0  0  0  0  0  0  0  0  0  0  0
  152.9812  139.8733  161.3575 H   0  0  0  0  0  0  0  0  0  0  0  0
  154.2786  140.4367  162.4022 H   0  0  0  0  0  0  0  0  0  0  0  0
  154.6110  140.0650  160.7148 H   0  0  0  0  0  0  0  0  0  0  0  0
  154.4947  142.5048  161.1013 H   0  0  0  0  0  0  0  0  0  0  0  0
  151.6104  142.0457  161.9623 H   0  0  0  0  0  0  0  0  0  0  0  0
  152.9230  142.5205  163.0095 H   0  0  0  0  0  0  0  0  0  0  0  0
  151.5483  144.4840  162.3168 H   0  0  0  0  0  0  0  0  0  0  0  0
  153.2071  144.6450  161.7919 H   0  0  0  0  0  0  0  0  0  0  0  0
  150.8406  143.7667  160.0695 H   0  0  0  0  0  0  0  0  0  0  0  0
  151.7010  145.2809  159.9460 H   0  0  0  0  0  0  0  0  0  0  0  0
  152.4369  143.6603  158.1839 H   0  0  0  0  0  0  0  0  0  0  0  0
  153.7567  144.1278  159.2264 H   0  0  0  0  0  0  0  0  0  0  0  0
  153.8545  141.7287  158.8696 H   0  0  0  0  0  0  0  0  0  0  0  0
  150.8024  141.3111  157.6000 H   0  0  0  0  0  0  0  0  0  0  0  0
  152.5316  141.0659  157.4124 H   0  0  0  0  0  0  0  0  0  0  0  0
  150.5647  139.1087  158.7345 H   0  0  0  0  0  0  0  0  0  0  0  0
  151.3329  138.9106  157.1785 H   0  0  0  0  0  0  0  0  0  0  0  0
  153.5270  139.1285  158.6424 H   0  0  0  0  0  0  0  0  0  0  0  0
  154.3567  136.3291  159.2804 H   0  0  0  0  0  0  0  0  0  0  0  0
  154.6623  137.8575  160.0368 H   0  0  0  0  0  0  0  0  0  0  0  0
  153.1843  138.2223  162.1406 H   0  0  0  0  0  0  0  0  0  0  0  0
  152.9621  137.3551  164.4572 H   0  0  0  0  0  0  0  0  0  0  0  0
  153.5557  134.9268  164.8808 H   0  0  0  0  0  0  0  0  0  0  0  0
  154.3044  133.5240  163.0635 H   0  0  0  0  0  0  0  0  0  0  0  0
  1  2  1  0  0  0  0
  1 22  1  0  0  0  0
  1 23  1  0  0  0  0
  1 24  1  0  0  0  0
  2  7  1  0  0  0  0
  2  3  1  0  0  0  0
  2 25  1  0  0  0  0
  3  4  1  0  0  0  0
  3 26  1  0  0  0  0
  3 27  1  0  0  0  0
  4  5  1  0  0  0  0
  4 28  1  0  0  0  0
  4 29  1  0  0  0  0
  5  6  1  0  0  0  0
  5 30  1  0  0  0  0
  5 31  1  0  0  0  0
  6  7  1  0  0  0  0
  6 32  1  0  0  0  0
  6 33  1  0  0  0  0
  7  8  1  0  0  0  0
  7 34  1  0  0  0  0
  8  9  1  0  0  0  0
  9 10  1  0  0  0  0
  9 35  1  0  0  0  0
  9 36  1  0  0  0  0
 10 11  1  0  0  0  0
 10 37  1  0  0  0  0
 10 38  1  0  0  0  0
 11 12  1  0  0  0  0
 11 39  1  0  0  0  0
 12 13  2  0  0  0  0
 12 14  1  0  0  0  0
 14 15  1  0  0  0  0
 14 40  1  0  0  0  0
 14 41  1  0  0  0  0
 15 20  1  0  0  0  0
 15 16  1  0  0  0  0
 16 17  2  0  0  0  0
 16 42  1  0  0  0  0
 17 18  1  0  0  0  0
 17 43  1  0  0  0  0
 18 19  2  0  0  0  0
 18 44  1  0  0  0  0
 19 20  1  0  0  0  0
 19 45  1  0  0  0  0
 20 21  2  0  0  0  0
M  END
> <s_m_source_file>
AV-unprocessed.smi

> <i_m_source_file_index>
1323

> <i_lp_mmshare_version>
43012

> <i_f3d_flags>
0

> <s_epik_input>
W0NIM11bQ0BASF0xW0NIMl1bQ0gyXVtDSDJdW0NIMl1bQ0BIXTFPW0NIMl1bQ0gyXVtOSF1DKD1PKVtDSDJdbjJbY0hdW2NIXVtjSF1bY0hdYzI9Tw==

> <s_epik_cmdline>
J2VwaWtfcHl0aG9uJywgJy1waCcsICc3LjAnLCAnLXRuJywgJzgnLCAnLW1hJywgJzIwMCcsICctbWV0YWxfYmluZGluZycsICctaW1hZScsICc8aW5maWxlLm1hZT4nLCAnLW9tYWUnLCAnPG91dGZpbGUubWFlPic=

> <r_lp_tautomer_probability>
1

> <r_epik_Ionization_Penalty>
4.02412e-07

> <r_epik_Ionization_Penalty_Charging>
3.74552e-07

> <r_epik_Ionization_Penalty_Neutral>
2.78599e-08

> <r_epik_State_Penalty>
-0

> <r_epik_Charging_Adjusted_Penalty>
3.74552e-07

> <i_epik_Tot_Q>
0

> <i_epik_Tot_abs_Q>
0

> <r_epik_Metal_State_Penalty>
-0

> <b_epik_Metal_Only>
0

> <s_lp_Force_Field>
OPLS_2005

> <r_lp_Energy>
19.1209

> <b_lp_Chiralities_Consistent>
1

> <s_lp_Variant>
AV-unprocessed.smi:1323-3

> <Gold.Version>
5.8.1

> <Gold.Id.Protein>
6NUR|6NUR_protein|mol2

> <Gold.PLP.Fitness>
49.9852

> <Gold.PLP.PLP>
-49.5458

> <Gold.PLP.part.hbond>
-1.0000

> <Gold.PLP.part.metal>
0.0000

> <Gold.PLP.part.buried>
-5.7675

> <Gold.PLP.part.nonpolar>
-43.1895

> <Gold.PLP.part.repulsive>
0.0765

> <Gold.PLP.ligand.clash>
0.0000

> <Gold.PLP.ligand.torsion>
1.3047

> <Gold.PLP.Chemscore.Hbond>
1.0000

> <Gold.PLP.Chemscore.CHOScore>
0.0000

> <Gold.PLP.Chemscore.Metal>
0.0000

> <Gold.Chemscore.Hbonds>
donor molecule, donor type, donor heavy atom, donor atom, acceptor molecule, acceptor atom, score
      P1  H  6896  6907       L1    21  0.21
      P1  H  6896  6909       L1    13  1.00

> <Gold.PLP.Chemscore.Internal.Correction>
0.0487

> <Gold.Rescore>
     Score         DG    S(hbond)    S(metal)    S(lipo)     H(rot)  DE(clash)    DE(int)     intcor
     18.52     -19.61       1.00        0.00     134.63       1.94       0.07       1.01       ----

> <Gold.Chemscore.Fitness>
18.5246

> <Gold.Chemscore.DG>
-19.6059

> <Gold.Chemscore.ZeroCoef>
-5.4800

> <Gold.Chemscore.Hbond>
0.9999

> <Gold.Chemscore.Metal>
0.0000

> <Gold.Chemscore.Lipo>
134.6344

> <Gold.Chemscore.Internal_Hbond>
0.0000

> <Gold.Chemscore.DEClash>
0.0727

> <Gold.Chemscore.DEInternal>
1.0086

> <Gold.Chemscore.Rot>
1.9398

> <Gold.Chemscore.Internal.Correction>
   9.000000E+99

> <Gold.Chemscore.Hbonds>
donor molecule, donor type, donor heavy atom, donor atom, acceptor molecule, acceptor atom, score
      P1  H  6896  6907       L1    21  0.05
      P1  H  6896  6909       L1    13  0.99

> <Gold.Chemscore.Hbond.Weighted>
-3.3396

> <Gold.Chemscore.Metal.Weighted>
-0.0000

> <Gold.Chemscore.Lipo.Weighted>
-15.7522

> <Gold.Chemscore.Internal_Hbond.Weighted>
0.0000

> <Gold.Chemscore.DEClash.Weighted>
0.0727

> <Gold.Chemscore.DEInternal.Weighted>
1.0086

> <Gold.Chemscore.Rot.Weighted>
4.9659

> <Gold.Chemscore.Internal.Correction.Weighted>
   9.000000E+99

> <Gold.Protein.RotatedTorsions>
[ 6907 6896 6895 6894 ] final  118.54 input  -60.11 | X-H torsion
[ 7974 7965 7964 7962 ] final -106.25 input  175.53 | X-H torsion
[ 8008 7997 7996 7995 ] final  -58.35 input   59.86 | X-H torsion
[ 10167 10162 10161 10158 ] final   -6.67 input  -65.29 | X-H torsion
[ 10718 10713 10712 10709 ] final  157.92 input   66.30 | X-H torsion
[ 10763 10752 10751 10750 ] final   74.59 input  -60.55 | X-H torsion
[ 11005 11000 10999 10996 ] final  157.20 input  -57.11 | X-H torsion

> <Gold.Protein.ActiveResidues>
 VAL166  LYS551  ARG553  GLY616  TRP617  ASP618  TYR619  PRO620  LYS621  CYS622 
 ASP623  PHE694  ASN695  SER759  ASP760  ASP761  ALA762  ILE779  LEU786  VAL792 
 PHE793  MET794  SER795  GLU796  ALA797  LYS798  CYS799  TRP800  GLU811  SER814 

> <Gold.Protein.RotatedAtoms>
  152.4536  133.7677  159.6781 H   0  0  0  0  0  0  0  0  0  0  0  0  # atno 6907 bound_to 6896
  150.8455  133.7859  159.3051 H   0  0  0  0  0  0  0  0  0  0  0  0  # atno 6908 bound_to 6896
  151.5471  135.1070  159.9992 H   0  0  0  0  0  0  0  0  0  0  0  0  # atno 6909 bound_to 6896
  145.2202  140.9131  143.3264 H   0  0  0  0  0  0  0  0  0  0  0  0  # atno 7974 bound_to 7965
  154.4305  140.1086  156.5943 H   0  0  0  0  0  0  0  0  0  0  0  0  # atno 8008 bound_to 7997
  155.5978  140.3493  155.4566 H   0  0  0  0  0  0  0  0  0  0  0  0  # atno 8009 bound_to 7997
  156.0197  140.1237  157.0360 H   0  0  0  0  0  0  0  0  0  0  0  0  # atno 8010 bound_to 7997
  140.7004  143.6168  150.8651 H   0  0  0  0  0  0  0  0  0  0  0  0  # atno 10167 bound_to 10162
  157.1849  131.0641  151.2111 H   0  0  0  0  0  0  0  0  0  0  0  0  # atno 10718 bound_to 10713
  153.0597  135.5020  154.8065 H   0  0  0  0  0  0  0  0  0  0  0  0  # atno 10763 bound_to 10752
  154.6863  135.2977  154.9544 H   0  0  0  0  0  0  0  0  0  0  0  0  # atno 10764 bound_to 10752
  154.0314  135.6729  153.4834 H   0  0  0  0  0  0  0  0  0  0  0  0  # atno 10765 bound_to 10752
  140.1746  134.8518  157.2731 H   0  0  0  0  0  0  0  0  0  0  0  0  # atno 11005 bound_to 11000
  144.9772  139.3819  143.6279 LP  0  0  0  0  0  0  0  0  0  0  0  0  # atno 17320 bound_to 7965
  146.3378  139.8897  142.8811 LP  0  0  0  0  0  0  0  0  0  0  0  0  # atno 17321 bound_to 7965
  139.9889  143.5868  152.2917 LP  0  0  0  0  0  0  0  0  0  0  0  0  # atno 17342 bound_to 10162
  139.6516  144.7661  151.2136 LP  0  0  0  0  0  0  0  0  0  0  0  0  # atno 17343 bound_to 10162
  157.3917  130.7285  149.6702 LP  0  0  0  0  0  0  0  0  0  0  0  0  # atno 17370 bound_to 10713
  155.9719  130.4145  150.4134 LP  0  0  0  0  0  0  0  0  0  0  0  0  # atno 17371 bound_to 10713
  140.2337  134.3878  155.7510 LP  0  0  0  0  0  0  0  0  0  0  0  0  # atno 17394 bound_to 11000
  141.2219  133.7228  156.8681 LP  0  0  0  0  0  0  0  0  0  0  0  0  # atno 17395 bound_to 11000

$$$$
