AV-unprocessed.smi:1798|AV-procd|sdf|7260|dock6
  -GOLD-   22720 8513D 1   1.00000     0.00000
 Structure written by MMmdl.
 40 41  0  0  0  0  0  0  0  0  3 V2000
  145.8515  143.3680  153.6537 C   0  0  0  0  0  0  0  0  0  0  0  0
  146.4719  142.2336  154.4816 C   0  0  2  0  0  0  0  0  0  0  0  0
  146.3398  142.5012  155.9931 C   0  0  0  0  0  0  0  0  0  0  0  0
  146.9640  141.3688  156.8284 C   0  0  0  0  0  0  0  0  0  0  0  0
  148.4340  141.1045  156.4497 C   0  0  2  0  0  0  0  0  0  0  0  0
  149.2779  142.2114  156.8970 N   0  0  0  0  0  0  0  0  0  0  0  0
  150.5571  142.1088  157.2876 C   0  0  0  0  0  0  0  0  0  0  0  0
  151.1748  141.0431  157.3032 O   0  0  0  0  0  0  0  0  0  0  0  0
  151.2365  143.4213  157.7033 C   0  0  0  0  0  0  0  0  0  0  0  0
  151.7050  143.4199  159.0995 N   0  0  0  0  0  0  0  0  0  0  0  0
  152.5580  142.3677  159.4873 C   0  0  0  0  0  0  0  0  0  0  0  0
  153.0426  142.2633  160.7402 C   0  0  0  0  0  0  0  0  0  0  0  0
  153.9145  141.1740  161.1217 N   0  3  0  0  0  0  0  0  0  0  0  0
  154.0414  140.2257  160.3540 O   0  0  0  0  0  0  0  0  0  0  0  0
  154.4999  141.2289  162.1992 O   0  5  0  0  0  0  0  0  0  0  0  0
  152.6579  143.2814  161.6985 C   0  0  0  0  0  0  0  0  0  0  0  0
  151.8389  144.2879  161.3351 C   0  0  0  0  0  0  0  0  0  0  0  0
  151.3097  144.3970  159.9717 C   0  0  0  0  0  0  0  0  0  0  0  0
  150.5570  145.3112  159.6349 O   0  0  0  0  0  0  0  0  0  0  0  0
  148.5732  140.8659  154.9311 C   0  0  0  0  0  0  0  0  0  0  0  0
  147.9471  142.0016  154.1029 C   0  0  0  0  0  0  0  0  0  0  0  0
  146.3609  144.3153  153.8335 H   0  0  0  0  0  0  0  0  0  0  0  0
  144.7983  143.5035  153.9011 H   0  0  0  0  0  0  0  0  0  0  0  0
  145.9138  143.1544  152.5864 H   0  0  0  0  0  0  0  0  0  0  0  0
  145.9195  141.3209  154.2531 H   0  0  0  0  0  0  0  0  0  0  0  0
  146.8177  143.4489  156.2438 H   0  0  0  0  0  0  0  0  0  0  0  0
  145.2880  142.6105  156.2603 H   0  0  0  0  0  0  0  0  0  0  0  0
  146.8832  141.5994  157.8914 H   0  0  0  0  0  0  0  0  0  0  0  0
  146.3873  140.4562  156.6734 H   0  0  0  0  0  0  0  0  0  0  0  0
  148.7554  140.2029  156.9745 H   0  0  0  0  0  0  0  0  0  0  0  0
  148.8528  143.1273  156.9096 H   0  0  0  0  0  0  0  0  0  0  0  0
  152.0683  143.6040  157.0216 H   0  0  0  0  0  0  0  0  0  0  0  0
  150.5468  144.2515  157.5386 H   0  0  0  0  0  0  0  0  0  0  0  0
  152.7790  141.6583  158.7028 H   0  0  0  0  0  0  0  0  0  0  0  0
  153.0224  143.2438  162.7146 H   0  0  0  0  0  0  0  0  0  0  0  0
  151.5639  145.0349  162.0652 H   0  0  0  0  0  0  0  0  0  0  0  0
  149.6212  140.7383  154.6572 H   0  0  0  0  0  0  0  0  0  0  0  0
  148.0805  139.9274  154.6730 H   0  0  0  0  0  0  0  0  0  0  0  0
  148.0254  141.7616  153.0420 H   0  0  0  0  0  0  0  0  0  0  0  0
  148.5165  142.9202  154.2514 H   0  0  0  0  0  0  0  0  0  0  0  0
  1  2  1  0  0  0  0
  1 22  1  0  0  0  0
  1 23  1  0  0  0  0
  1 24  1  0  0  0  0
  2 21  1  0  0  0  0
  2  3  1  0  0  0  0
  2 25  1  0  0  0  0
  3  4  1  0  0  0  0
  3 26  1  0  0  0  0
  3 27  1  0  0  0  0
  4  5  1  0  0  0  0
  4 28  1  0  0  0  0
  4 29  1  0  0  0  0
  5  6  1  0  0  0  0
  5 20  1  0  0  0  0
  5 30  1  0  0  0  0
  6  7  1  0  0  0  0
  6 31  1  0  0  0  0
  7  8  2  0  0  0  0
  7  9  1  0  0  0  0
  9 10  1  0  0  0  0
  9 32  1  0  0  0  0
  9 33  1  0  0  0  0
 10 18  1  0  0  0  0
 10 11  1  0  0  0  0
 11 12  2  0  0  0  0
 11 34  1  0  0  0  0
 12 13  1  0  0  0  0
 12 16  1  0  0  0  0
 13 14  2  0  0  0  0
 13 15  1  0  0  0  0
 16 17  2  0  0  0  0
 16 35  1  0  0  0  0
 17 18  1  0  0  0  0
 17 36  1  0  0  0  0
 18 19  2  0  0  0  0
 20 21  1  0  0  0  0
 20 37  1  0  0  0  0
 20 38  1  0  0  0  0
 21 39  1  0  0  0  0
 21 40  1  0  0  0  0
M  CHG  1  13   1
M  CHG  1  15  -1
M  END
> <s_m_source_file>
AV-unprocessed.smi

> <i_m_source_file_index>
1798

> <i_lp_mmshare_version>
43012

> <i_f3d_flags>
0

> <s_epik_input>
W0NIM11bQ0BASF0xW0NIMl1bQ0gyXVtDQEhdKFtDSDJdW0NIMl0xKVtOSF1DKD1PKVtDSDJdbjJbY0hdYyhbTitdKD1PKVtPLV0pW2NIXVtjSF1jMj1P

> <s_epik_cmdline>
J2VwaWtfcHl0aG9uJywgJy1waCcsICc3LjAnLCAnLXRuJywgJzgnLCAnLW1hJywgJzIwMCcsICctbWV0YWxfYmluZGluZycsICctaW1hZScsICc8aW5maWxlLm1hZT4nLCAnLW9tYWUnLCAnPG91dGZpbGUubWFlPic=

> <r_lp_tautomer_probability>
1

> <r_epik_Ionization_Penalty>
1.91292e-08

> <r_epik_Ionization_Penalty_Charging>
8.23013e-11

> <r_epik_Ionization_Penalty_Neutral>
1.90469e-08

> <r_epik_State_Penalty>
-0

> <r_epik_Charging_Adjusted_Penalty>
8.23013e-11

> <i_epik_Tot_Q>
0

> <i_epik_Tot_abs_Q>
2

> <r_epik_Metal_State_Penalty>
-0

> <b_epik_Metal_Only>
0

> <s_lp_Force_Field>
OPLS_2005

> <r_lp_Energy>
19.5482

> <b_lp_Chiralities_Consistent>
1

> <s_lp_Variant>
AV-unprocessed.smi:1798-2

> <Gold.Version>
5.8.1

> <Gold.Id.Protein>
6NUR|6NUR_protein|mol2

> <Gold.PLP.Fitness>
50.3833

> <Gold.PLP.PLP>
-49.0397

> <Gold.PLP.part.hbond>
-2.0000

> <Gold.PLP.part.metal>
0.0000

> <Gold.PLP.part.buried>
-7.0815

> <Gold.PLP.part.nonpolar>
-40.3130

> <Gold.PLP.part.repulsive>
0.2031

> <Gold.PLP.ligand.clash>
0.0000

> <Gold.PLP.ligand.torsion>
0.4623

> <Gold.PLP.Chemscore.Hbond>
0.7520

> <Gold.PLP.Chemscore.CHOScore>
0.0000

> <Gold.PLP.Chemscore.Metal>
0.0000

> <Gold.Chemscore.Hbonds>
donor molecule, donor type, donor heavy atom, donor atom, acceptor molecule, acceptor atom, score
      L1  H     6    31       P1  8028  0.70

> <Gold.PLP.Chemscore.Internal.Correction>
0.0122

> <Gold.Rescore>
     Score         DG    S(hbond)    S(metal)    S(lipo)     H(rot)  DE(clash)    DE(int)     intcor
     14.90     -16.60       1.41        0.00      88.86       1.55       0.12       1.58       ----

> <Gold.Chemscore.Fitness>
14.9039

> <Gold.Chemscore.DG>
-16.6038

> <Gold.Chemscore.ZeroCoef>
-5.4800

> <Gold.Chemscore.Hbond>
1.4062

> <Gold.Chemscore.Metal>
0.0000

> <Gold.Chemscore.Lipo>
88.8580

> <Gold.Chemscore.Internal_Hbond>
0.0000

> <Gold.Chemscore.DEClash>
0.1172

> <Gold.Chemscore.DEInternal>
1.5828

> <Gold.Chemscore.Rot>
1.5505

> <Gold.Chemscore.Internal.Correction>
   9.000000E+99

> <Gold.Chemscore.Hbonds>
donor molecule, donor type, donor heavy atom, donor atom, acceptor molecule, acceptor atom, score
      L1  H     6    31       P1  8028  0.52

> <Gold.Chemscore.Hbond.Weighted>
-4.6966

> <Gold.Chemscore.Metal.Weighted>
-0.0000

> <Gold.Chemscore.Lipo.Weighted>
-10.3964

> <Gold.Chemscore.Internal_Hbond.Weighted>
0.0000

> <Gold.Chemscore.DEClash.Weighted>
0.1172

> <Gold.Chemscore.DEInternal.Weighted>
1.5828

> <Gold.Chemscore.Rot.Weighted>
3.9692

> <Gold.Chemscore.Internal.Correction.Weighted>
   9.000000E+99

> <Gold.Protein.RotatedTorsions>
[ 6907 6896 6895 6894 ] final -114.92 input  -60.11 | X-H torsion
[ 7974 7965 7964 7962 ] final   79.72 input  175.53 | X-H torsion
[ 8008 7997 7996 7995 ] final  131.84 input   59.86 | X-H torsion
[ 10167 10162 10161 10158 ] final  -72.52 input  -65.29 | X-H torsion
[ 10718 10713 10712 10709 ] final   46.42 input   66.30 | X-H torsion
[ 10763 10752 10751 10750 ] final  -43.41 input  -60.55 | X-H torsion
[ 11005 11000 10999 10996 ] final -114.32 input  -57.11 | X-H torsion

> <Gold.Protein.ActiveResidues>
 VAL166  LYS551  ARG553  GLY616  TRP617  ASP618  TYR619  PRO620  LYS621  CYS622 
 ASP623  PHE694  ASN695  SER759  ASP760  ASP761  ALA762  ILE779  LEU786  VAL792 
 PHE793  MET794  SER795  GLU796  ALA797  LYS798  CYS799  TRP800  GLU811  SER814 

> <Gold.Protein.RotatedAtoms>
  150.7938  133.8733  159.3264 H   0  0  0  0  0  0  0  0  0  0  0  0  # atno 6907 bound_to 6896
  151.6563  135.0993  160.0180 H   0  0  0  0  0  0  0  0  0  0  0  0  # atno 6908 bound_to 6896
  152.4017  133.6788  159.6357 H   0  0  0  0  0  0  0  0  0  0  0  0  # atno 6909 bound_to 6896
  145.6605  139.2470  143.1925 H   0  0  0  0  0  0  0  0  0  0  0  0  # atno 7974 bound_to 7965
  156.2975  140.2561  156.2991 H   0  0  0  0  0  0  0  0  0  0  0  0  # atno 8008 bound_to 7997
  154.9435  140.0395  157.2127 H   0  0  0  0  0  0  0  0  0  0  0  0  # atno 8009 bound_to 7997
  154.8103  140.2843  155.5862 H   0  0  0  0  0  0  0  0  0  0  0  0  # atno 8010 bound_to 7997
  140.5186  143.2334  151.7470 H   0  0  0  0  0  0  0  0  0  0  0  0  # atno 10167 bound_to 10162
  157.4479  130.8121  149.7759 H   0  0  0  0  0  0  0  0  0  0  0  0  # atno 10718 bound_to 10713
  153.9951  135.6700  153.4756 H   0  0  0  0  0  0  0  0  0  0  0  0  # atno 10763 bound_to 10752
  153.0687  135.4986  154.8254 H   0  0  0  0  0  0  0  0  0  0  0  0  # atno 10764 bound_to 10752
  154.7086  135.3093  154.9194 H   0  0  0  0  0  0  0  0  0  0  0  0  # atno 10765 bound_to 10752
  141.0559  133.9613  157.2755 H   0  0  0  0  0  0  0  0  0  0  0  0  # atno 11005 bound_to 11000
  146.1129  140.7406  142.9494 LP  0  0  0  0  0  0  0  0  0  0  0  0  # atno 17320 bound_to 7965
  144.7091  140.3968  143.7095 LP  0  0  0  0  0  0  0  0  0  0  0  0  # atno 17321 bound_to 7965
  139.4916  144.4288  151.9895 LP  0  0  0  0  0  0  0  0  0  0  0  0  # atno 17342 bound_to 10162
  140.3384  144.3233  150.5972 LP  0  0  0  0  0  0  0  0  0  0  0  0  # atno 17343 bound_to 10162
  155.9975  130.3899  150.2738 LP  0  0  0  0  0  0  0  0  0  0  0  0  # atno 17370 bound_to 10713
  157.0907  131.0169  151.3122 LP  0  0  0  0  0  0  0  0  0  0  0  0  # atno 17371 bound_to 10713
  139.9390  135.0193  156.8647 LP  0  0  0  0  0  0  0  0  0  0  0  0  # atno 17394 bound_to 11000
  140.5965  134.0212  155.7520 LP  0  0  0  0  0  0  0  0  0  0  0  0  # atno 17395 bound_to 11000

$$$$
