AV-unprocessed.smi:69|AV-procd|sdf|653|dock7
  -GOLD-   2262016553D 1   1.00000     0.00000
 Structure written by MMmdl.
 32 34  0  0  0  0  0  0  0  0  1 V2000
  143.0165  134.8155  155.0955 N   0  0  0  0  0  0  0  0  0  0  0  0
  143.7331  135.6665  154.3483 C   0  0  0  0  0  0  0  0  0  0  0  0
  143.3036  135.9385  153.0940 N   0  0  0  0  0  0  0  0  0  0  0  0
  144.0016  136.7840  152.3292 C   0  0  0  0  0  0  0  0  0  0  0  0
  145.1247  137.4434  152.6238 N   0  0  0  0  0  0  0  0  0  0  0  0
  145.5577  137.1690  153.8891 C   0  0  0  0  0  0  0  0  0  0  0  0
  144.9186  136.2926  154.8098 C   0  0  0  0  0  0  0  0  0  0  0  0
  145.6342  136.2497  155.9982 N   0  0  0  0  0  0  0  0  0  0  0  0
  146.6396  137.0560  155.7873 C   0  0  0  0  0  0  0  0  0  0  0  0
  146.6758  137.6496  154.5441 N   0  0  0  0  0  0  0  0  0  0  0  0
  147.7081  138.6099  154.0302 C   0  0  2  0  0  0  0  0  0  0  0  0
  148.7073  138.7799  154.9912 O   0  0  0  0  0  0  0  0  0  0  0  0
  148.7899  140.1450  155.3973 C   0  0  1  0  0  0  0  0  0  0  0  0
  150.2260  140.5105  155.8120 C   0  0  0  0  0  0  0  0  0  0  0  0
  151.1311  140.1627  154.7862 O   0  0  0  0  0  0  0  0  0  0  0  0
  148.2251  140.9257  154.2018 C   0  0  1  0  0  0  0  0  0  0  0  0
  149.2114  141.1302  153.2057 O   0  0  0  0  0  0  0  0  0  0  0  0
  147.1361  139.9999  153.6838 C   0  0  2  0  0  0  0  0  0  0  0  0
  145.8970  140.2871  154.3081 O   0  0  0  0  0  0  0  0  0  0  0  0
  148.1448  138.1097  153.1647 H   0  0  0  0  0  0  0  0  0  0  0  0
  148.1140  140.3010  156.2390 H   0  0  0  0  0  0  0  0  0  0  0  0
  147.8387  141.9019  154.4982 H   0  0  0  0  0  0  0  0  0  0  0  0
  146.9953  140.0811  152.6052 H   0  0  0  0  0  0  0  0  0  0  0  0
  143.3170  134.5957  156.0342 H   0  0  0  0  0  0  0  0  0  0  0  0
  142.1771  134.3992  154.7194 H   0  0  0  0  0  0  0  0  0  0  0  0
  143.6048  136.9566  151.3397 H   0  0  0  0  0  0  0  0  0  0  0  0
  147.3919  137.2400  156.5403 H   0  0  0  0  0  0  0  0  0  0  0  0
  150.3144  141.5711  156.0497 H   0  0  0  0  0  0  0  0  0  0  0  0
  150.5135  139.9505  156.7023 H   0  0  0  0  0  0  0  0  0  0  0  0
  151.2339  139.2233  154.7809 H   0  0  0  0  0  0  0  0  0  0  0  0
  149.0728  140.5030  152.5127 H   0  0  0  0  0  0  0  0  0  0  0  0
  145.2171  140.2527  153.6527 H   0  0  0  0  0  0  0  0  0  0  0  0
  1  2  1  0  0  0  0
  1 24  1  0  0  0  0
  1 25  1  0  0  0  0
  2  7  1  0  0  0  0
  2  3  2  0  0  0  0
  3  4  1  0  0  0  0
  4  5  2  0  0  0  0
  4 26  1  0  0  0  0
  5  6  1  0  0  0  0
  6 10  1  0  0  0  0
  6  7  2  0  0  0  0
  7  8  1  0  0  0  0
  8  9  2  0  0  0  0
  9 10  1  0  0  0  0
  9 27  1  0  0  0  0
 10 11  1  0  0  0  0
 11 20  1  0  0  0  0
 11 18  1  0  0  0  0
 11 12  1  0  0  0  0
 12 13  1  0  0  0  0
 13 21  1  0  0  0  0
 13 14  1  0  0  0  0
 13 16  1  0  0  0  0
 14 15  1  0  0  0  0
 14 28  1  0  0  0  0
 14 29  1  0  0  0  0
 15 30  1  0  0  0  0
 16 22  1  0  0  0  0
 16 17  1  0  0  0  0
 16 18  1  0  0  0  0
 17 31  1  0  0  0  0
 18 23  1  0  0  0  0
 18 19  1  0  0  0  0
 19 32  1  0  0  0  0
M  END
> <s_m_source_file>
AV-unprocessed.smi

> <i_m_source_file_index>
69

> <i_lp_mmshare_version>
43012

> <i_f3d_flags>
0

> <s_epik_input>
bjFbY0hdbmMoW05IMl0pYyhjMTIpbltjSF1uMltDQEBIXTNPW0NASF0oW0NIMl1bT0hdKVtDQEBIXShbT0hdKVtDQEhdM1tPSF0=

> <s_epik_cmdline>
J2VwaWtfcHl0aG9uJywgJy1waCcsICc3LjAnLCAnLXRuJywgJzgnLCAnLW1hJywgJzIwMCcsICctbWV0YWxfYmluZGluZycsICctaW1hZScsICc8aW5maWxlLm1hZT4nLCAnLW9tYWUnLCAnPG91dGZpbGUubWFlPic=

> <r_lp_tautomer_probability>
1

> <r_epik_Ionization_Penalty>
0.000428445

> <r_epik_Ionization_Penalty_Charging>
0

> <r_epik_Ionization_Penalty_Neutral>
0.000428445

> <r_epik_State_Penalty>
-0

> <r_epik_Charging_Adjusted_Penalty>
0

> <i_epik_Tot_Q>
0

> <i_epik_Tot_abs_Q>
0

> <r_epik_Metal_State_Penalty>
-0

> <b_epik_Metal_Only>
0

> <s_epik_Chemistry_Notes>
This compound contains an acetal/aminal-like group ( X-CH(R)-Y where X, Y are N, S, or O) that may be acid/base labile, releasing an aldehyde.

> <s_lp_Force_Field>
OPLS_2005

> <r_lp_Energy>
40.109

> <b_lp_Chiralities_Consistent>
1

> <s_lp_Variant>
AV-unprocessed.smi:69-11

> <Gold.Version>
5.8.1

> <Gold.Id.Protein>
6NUR|6NUR_protein|mol2

> <Gold.PLP.Fitness>
34.1185

> <Gold.PLP.PLP>
-19.6179

> <Gold.PLP.part.hbond>
-5.8026

> <Gold.PLP.part.metal>
0.0000

> <Gold.PLP.part.buried>
-4.3388

> <Gold.PLP.part.nonpolar>
-9.6750

> <Gold.PLP.part.repulsive>
0.4355

> <Gold.PLP.ligand.clash>
0.0000

> <Gold.PLP.ligand.torsion>
0.0353

> <Gold.PLP.Chemscore.Hbond>
3.8564

> <Gold.PLP.Chemscore.CHOScore>
1.0000

> <Gold.PLP.Chemscore.Metal>
0.0000

> <Gold.Chemscore.Hbonds>
donor molecule, donor type, donor heavy atom, donor atom, acceptor molecule, acceptor atom, score
      L1  H    17    31       P1  7957  0.83
      L1  H    19    32       P1 10175  1.00
      P1  H  7989  7998       L1    15  1.00
      P1  H  8011  8017       L1    17  1.00
      L1  C     4    26       P1 10171  1.00

> <Gold.PLP.Chemscore.Internal.Correction>
0.0019

> <Gold.Rescore>
     Score         DG    S(hbond)    S(metal)    S(lipo)     H(rot)  DE(clash)    DE(int)     intcor
      9.13      -9.19       3.37        0.00      23.65       4.03       0.00       0.06       ----

> <Gold.Chemscore.Fitness>
9.1342

> <Gold.Chemscore.DG>
-9.1920

> <Gold.Chemscore.ZeroCoef>
-5.4800

> <Gold.Chemscore.Hbond>
3.3699

> <Gold.Chemscore.Metal>
0.0000

> <Gold.Chemscore.Lipo>
23.6527

> <Gold.Chemscore.Internal_Hbond>
0.0000

> <Gold.Chemscore.DEClash>
0.0000

> <Gold.Chemscore.DEInternal>
0.0578

> <Gold.Chemscore.Rot>
4.0277

> <Gold.Chemscore.Internal.Correction>
   9.000000E+99

> <Gold.Chemscore.Hbonds>
donor molecule, donor type, donor heavy atom, donor atom, acceptor molecule, acceptor atom, score
      L1  H    17    31       P1  7957  0.78
      L1  H    19    32       P1 10175  0.99
      P1  H  7989  7998       L1    15  0.84
      P1  H  8011  8017       L1    17  0.25

> <Gold.Chemscore.Hbond.Weighted>
-11.2556

> <Gold.Chemscore.Metal.Weighted>
-0.0000

> <Gold.Chemscore.Lipo.Weighted>
-2.7674

> <Gold.Chemscore.Internal_Hbond.Weighted>
0.0000

> <Gold.Chemscore.DEClash.Weighted>
0.0000

> <Gold.Chemscore.DEInternal.Weighted>
0.0578

> <Gold.Chemscore.Rot.Weighted>
10.3110

> <Gold.Chemscore.Internal.Correction.Weighted>
   9.000000E+99

> <Gold.Protein.RotatedTorsions>
[ 6907 6896 6895 6894 ] final  110.10 input  -60.11 | X-H torsion
[ 7974 7965 7964 7962 ] final   28.03 input  175.53 | X-H torsion
[ 8008 7997 7996 7995 ] final   45.88 input   59.86 | X-H torsion
[ 10167 10162 10161 10158 ] final -118.28 input  -65.29 | X-H torsion
[ 10718 10713 10712 10709 ] final  -85.24 input   66.30 | X-H torsion
[ 10763 10752 10751 10750 ] final -165.03 input  -60.55 | X-H torsion
[ 11005 11000 10999 10996 ] final   80.24 input  -57.11 | X-H torsion

> <Gold.Protein.ActiveResidues>
 VAL166  LYS551  ARG553  GLY616  TRP617  ASP618  TYR619  PRO620  LYS621  CYS622 
 ASP623  PHE694  ASN695  SER759  ASP760  ASP761  ALA762  ILE779  LEU786  VAL792 
 PHE793  MET794  SER795  GLU796  ALA797  LYS798  CYS799  TRP800  GLU811  SER814 

> <Gold.Protein.RotatedAtoms>
  152.5036  133.8849  159.7364 H   0  0  0  0  0  0  0  0  0  0  0  0  # atno 6907 bound_to 6896
  150.9302  133.6767  159.2819 H   0  0  0  0  0  0  0  0  0  0  0  0  # atno 6908 bound_to 6896
  151.4114  135.0990  159.9638 H   0  0  0  0  0  0  0  0  0  0  0  0  # atno 6909 bound_to 6896
  146.1752  139.7112  142.8939 H   0  0  0  0  0  0  0  0  0  0  0  0  # atno 7974 bound_to 7965
  155.3433  140.3409  155.4239 H   0  0  0  0  0  0  0  0  0  0  0  0  # atno 8008 bound_to 7997
  156.1802  140.1661  156.8324 H   0  0  0  0  0  0  0  0  0  0  0  0  # atno 8009 bound_to 7997
  154.5325  140.0742  156.8353 H   0  0  0  0  0  0  0  0  0  0  0  0  # atno 8010 bound_to 7997
  140.0592  143.4984  152.2041 H   0  0  0  0  0  0  0  0  0  0  0  0  # atno 10167 bound_to 10162
  155.9998  130.4724  150.4532 H   0  0  0  0  0  0  0  0  0  0  0  0  # atno 10718 bound_to 10713
  154.6971  135.2981  154.9395 H   0  0  0  0  0  0  0  0  0  0  0  0  # atno 10763 bound_to 10752
  154.0339  135.6666  153.4787 H   0  0  0  0  0  0  0  0  0  0  0  0  # atno 10764 bound_to 10752
  153.0654  135.5091  154.8095 H   0  0  0  0  0  0  0  0  0  0  0  0  # atno 10765 bound_to 10752
  139.9142  134.7905  156.1883 H   0  0  0  0  0  0  0  0  0  0  0  0  # atno 11005 bound_to 11000
  145.4232  141.0408  143.2952 LP  0  0  0  0  0  0  0  0  0  0  0  0  # atno 17320 bound_to 7965
  144.8224  139.5768  143.6980 LP  0  0  0  0  0  0  0  0  0  0  0  0  # atno 17321 bound_to 7965
  139.5904  144.7548  151.3414 LP  0  0  0  0  0  0  0  0  0  0  0  0  # atno 17342 bound_to 10162
  140.7180  143.7214  150.7693 LP  0  0  0  0  0  0  0  0  0  0  0  0  # atno 17343 bound_to 10162
  157.2563  131.0557  151.2348 LP  0  0  0  0  0  0  0  0  0  0  0  0  # atno 17370 bound_to 10713
  157.3479  130.7067  149.6422 LP  0  0  0  0  0  0  0  0  0  0  0  0  # atno 17371 bound_to 10713
  141.0599  133.6846  156.1933 LP  0  0  0  0  0  0  0  0  0  0  0  0  # atno 17394 bound_to 11000
  140.6677  134.4901  157.5586 LP  0  0  0  0  0  0  0  0  0  0  0  0  # atno 17395 bound_to 11000

$$$$
