AV-unprocessed.smi:1840|AV-procd|sdf|7494|dock10
  -GOLD-   22720 9193D 1   1.00000     0.00000
 Structure written by MMmdl.
 43 44  0  0  0  0  0  0  0  0  1 V2000
  146.4092  141.0382  155.6793 C   0  0  0  0  0  0  0  0  0  0  0  0
  147.6004  141.4661  154.8113 C   0  0  2  0  0  0  0  0  0  0  0  0
  148.2886  140.2483  154.1598 C   0  0  0  0  0  0  0  0  0  0  0  0
  147.3371  139.2725  153.6568 N   0  0  0  0  0  0  0  0  0  0  0  0
  147.0290  138.9735  152.3465 C   0  0  0  0  0  0  0  0  0  0  0  0
  146.0919  137.9806  152.3657 C   0  0  0  0  0  0  0  0  0  0  0  0
  145.8822  137.7415  153.7525 C   0  0  0  0  0  0  0  0  0  0  0  0
  146.6277  138.5169  154.5230 N   0  0  0  0  0  0  0  0  0  0  0  0
  148.5476  142.2168  155.6354 N   0  0  0  0  0  0  0  0  0  0  0  0
  149.2285  141.7291  156.6829 C   0  0  0  0  0  0  0  0  0  0  0  0
  149.1647  140.5605  157.0655 O   0  0  0  0  0  0  0  0  0  0  0  0
  149.9727  142.6758  157.2729 N   0  0  0  0  0  0  0  0  0  0  0  0
  150.8317  142.4842  158.4413 C   0  0  1  0  0  0  0  0  0  0  0  0
  151.5581  141.1315  158.3043 C   0  0  0  0  0  0  0  0  0  0  0  0
  152.5168  140.8807  159.4773 C   0  0  0  0  0  0  0  0  0  0  0  0
  153.5260  142.0283  159.6168 C   0  0  0  0  0  0  0  0  0  0  0  0
  152.8084  143.3784  159.7650 C   0  0  0  0  0  0  0  0  0  0  0  0
  151.8441  143.6501  158.5921 C   0  0  2  0  0  0  0  0  0  0  0  0
  151.1619  145.0192  158.7628 C   0  0  0  0  0  0  0  0  0  0  0  0
  145.6676  140.4988  155.0891 H   0  0  0  0  0  0  0  0  0  0  0  0
  145.9126  141.9039  156.1190 H   0  0  0  0  0  0  0  0  0  0  0  0
  146.7244  140.3853  156.4940 H   0  0  0  0  0  0  0  0  0  0  0  0
  147.2065  142.1057  154.0192 H   0  0  0  0  0  0  0  0  0  0  0  0
  148.9418  140.5674  153.3458 H   0  0  0  0  0  0  0  0  0  0  0  0
  148.9249  139.7452  154.8887 H   0  0  0  0  0  0  0  0  0  0  0  0
  147.5032  139.4812  151.5195 H   0  0  0  0  0  0  0  0  0  0  0  0
  145.6282  137.4982  151.5184 H   0  0  0  0  0  0  0  0  0  0  0  0
  145.2172  137.0301  154.2197 H   0  0  0  0  0  0  0  0  0  0  0  0
  148.6694  143.1924  155.4070 H   0  0  0  0  0  0  0  0  0  0  0  0
  149.9432  143.6073  156.8850 H   0  0  0  0  0  0  0  0  0  0  0  0
  150.2218  142.4398  159.3459 H   0  0  0  0  0  0  0  0  0  0  0  0
  150.8308  140.3205  158.2488 H   0  0  0  0  0  0  0  0  0  0  0  0
  152.1197  141.1056  157.3692 H   0  0  0  0  0  0  0  0  0  0  0  0
  151.9466  140.7785  160.4015 H   0  0  0  0  0  0  0  0  0  0  0  0
  153.0437  139.9373  159.3320 H   0  0  0  0  0  0  0  0  0  0  0  0
  154.1711  141.8532  160.4781 H   0  0  0  0  0  0  0  0  0  0  0  0
  154.1772  142.0535  158.7421 H   0  0  0  0  0  0  0  0  0  0  0  0
  152.2563  143.3938  160.7058 H   0  0  0  0  0  0  0  0  0  0  0  0
  153.5493  144.1758  159.8313 H   0  0  0  0  0  0  0  0  0  0  0  0
  152.4422  143.6986  157.6805 H   0  0  0  0  0  0  0  0  0  0  0  0
  150.4915  145.0239  159.6228 H   0  0  0  0  0  0  0  0  0  0  0  0
  150.5775  145.2861  157.8830 H   0  0  0  0  0  0  0  0  0  0  0  0
  151.8978  145.8101  158.9094 H   0  0  0  0  0  0  0  0  0  0  0  0
  1  2  1  0  0  0  0
  1 20  1  0  0  0  0
  1 21  1  0  0  0  0
  1 22  1  0  0  0  0
  2  3  1  0  0  0  0
  2  9  1  0  0  0  0
  2 23  1  0  0  0  0
  3  4  1  0  0  0  0
  3 24  1  0  0  0  0
  3 25  1  0  0  0  0
  4  8  1  0  0  0  0
  4  5  1  0  0  0  0
  5  6  2  0  0  0  0
  5 26  1  0  0  0  0
  6  7  1  0  0  0  0
  6 27  1  0  0  0  0
  7  8  2  0  0  0  0
  7 28  1  0  0  0  0
  9 10  1  0  0  0  0
  9 29  1  0  0  0  0
 10 11  2  0  0  0  0
 10 12  1  0  0  0  0
 12 13  1  0  0  0  0
 12 30  1  0  0  0  0
 13 18  1  0  0  0  0
 13 14  1  0  0  0  0
 13 31  1  0  0  0  0
 14 15  1  0  0  0  0
 14 32  1  0  0  0  0
 14 33  1  0  0  0  0
 15 16  1  0  0  0  0
 15 34  1  0  0  0  0
 15 35  1  0  0  0  0
 16 17  1  0  0  0  0
 16 36  1  0  0  0  0
 16 37  1  0  0  0  0
 17 18  1  0  0  0  0
 17 38  1  0  0  0  0
 17 39  1  0  0  0  0
 18 19  1  0  0  0  0
 18 40  1  0  0  0  0
 19 41  1  0  0  0  0
 19 42  1  0  0  0  0
 19 43  1  0  0  0  0
M  END
> <s_m_source_file>
AV-unprocessed.smi

> <i_m_source_file_index>
1840

> <i_lp_mmshare_version>
43012

> <i_f3d_flags>
0

> <s_epik_input>
bjFbY0hdW2NIXVtjSF1uMVtDSDJdW0NAQEhdKFtDSDNdKVtOSF1DKD1PKVtOSF1bQ0BASF0yW0NIMl1bQ0gyXVtDSDJdW0NIMl1bQ0BIXTJbQ0gzXQ==

> <s_epik_cmdline>
J2VwaWtfcHl0aG9uJywgJy1waCcsICc3LjAnLCAnLXRuJywgJzgnLCAnLW1hJywgJzIwMCcsICctbWV0YWxfYmluZGluZycsICctaW1hZScsICc8aW5maWxlLm1hZT4nLCAnLW9tYWUnLCAnPG91dGZpbGUubWFlPic=

> <r_lp_tautomer_probability>
1

> <r_epik_Ionization_Penalty>
7.38659e-05

> <r_epik_Ionization_Penalty_Charging>
0

> <r_epik_Ionization_Penalty_Neutral>
7.38659e-05

> <r_epik_State_Penalty>
-0

> <r_epik_Charging_Adjusted_Penalty>
0

> <i_epik_Tot_Q>
0

> <i_epik_Tot_abs_Q>
0

> <r_epik_Metal_State_Penalty>
-0

> <b_epik_Metal_Only>
0

> <s_lp_Force_Field>
OPLS_2005

> <r_lp_Energy>
7.66905

> <b_lp_Chiralities_Consistent>
1

> <s_lp_Variant>
AV-unprocessed.smi:1840-7

> <Gold.Version>
5.8.1

> <Gold.Id.Protein>
6NUR|6NUR_protein|mol2

> <Gold.PLP.Fitness>
44.2772

> <Gold.PLP.PLP>
-36.8932

> <Gold.PLP.part.hbond>
-1.8663

> <Gold.PLP.part.metal>
0.0000

> <Gold.PLP.part.buried>
-1.6177

> <Gold.PLP.part.nonpolar>
-34.2336

> <Gold.PLP.part.repulsive>
0.2880

> <Gold.PLP.ligand.clash>
0.0000

> <Gold.PLP.ligand.torsion>
0.5190

> <Gold.PLP.Chemscore.Hbond>
1.8000

> <Gold.PLP.Chemscore.CHOScore>
1.0000

> <Gold.PLP.Chemscore.Metal>
0.0000

> <Gold.Chemscore.Hbonds>
donor molecule, donor type, donor heavy atom, donor atom, acceptor molecule, acceptor atom, score
      L1  H     9    29       P1  8028  1.00
      L1  H    12    30       P1  8028  0.85
      L1  C     5    26       P1  7957  1.00

> <Gold.PLP.Chemscore.Internal.Correction>
0.0220

> <Gold.Rescore>
     Score         DG    S(hbond)    S(metal)    S(lipo)     H(rot)  DE(clash)    DE(int)     intcor
     16.20     -19.73       1.86        0.00     102.78       1.56       0.08       3.46       ----

> <Gold.Chemscore.Fitness>
16.1988

> <Gold.Chemscore.DG>
-19.7322

> <Gold.Chemscore.ZeroCoef>
-5.4800

> <Gold.Chemscore.Hbond>
1.8606

> <Gold.Chemscore.Metal>
0.0000

> <Gold.Chemscore.Lipo>
102.7793

> <Gold.Chemscore.Internal_Hbond>
0.0000

> <Gold.Chemscore.DEClash>
0.0782

> <Gold.Chemscore.DEInternal>
3.4552

> <Gold.Chemscore.Rot>
1.5576

> <Gold.Chemscore.Internal.Correction>
   9.000000E+99

> <Gold.Chemscore.Hbonds>
donor molecule, donor type, donor heavy atom, donor atom, acceptor molecule, acceptor atom, score
      L1  H     9    29       P1  8028  0.95
      L1  H    12    30       P1  8028  0.82

> <Gold.Chemscore.Hbond.Weighted>
-6.2145

> <Gold.Chemscore.Metal.Weighted>
-0.0000

> <Gold.Chemscore.Lipo.Weighted>
-12.0252

> <Gold.Chemscore.Internal_Hbond.Weighted>
0.0000

> <Gold.Chemscore.DEClash.Weighted>
0.0782

> <Gold.Chemscore.DEInternal.Weighted>
3.4552

> <Gold.Chemscore.Rot.Weighted>
3.9875

> <Gold.Chemscore.Internal.Correction.Weighted>
   9.000000E+99

> <Gold.Protein.RotatedTorsions>
[ 6907 6896 6895 6894 ] final  -52.49 input  -60.11 | X-H torsion
[ 7974 7965 7964 7962 ] final  107.09 input  175.53 | X-H torsion
[ 8008 7997 7996 7995 ] final   23.84 input   59.86 | X-H torsion
[ 10167 10162 10161 10158 ] final  -70.11 input  -65.29 | X-H torsion
[ 10718 10713 10712 10709 ] final  -35.52 input   66.30 | X-H torsion
[ 10763 10752 10751 10750 ] final  127.82 input  -60.55 | X-H torsion
[ 11005 11000 10999 10996 ] final   85.68 input  -57.11 | X-H torsion

> <Gold.Protein.ActiveResidues>
 VAL166  LYS551  ARG553  GLY616  TRP617  ASP618  TYR619  PRO620  LYS621  CYS622 
 ASP623  PHE694  ASN695  SER759  ASP760  ASP761  ALA762  ILE779  LEU786  VAL792 
 PHE793  MET794  SER795  GLU796  ALA797  LYS798  CYS799  TRP800  GLU811  SER814 

> <Gold.Protein.RotatedAtoms>
  150.8513  134.7838  159.7010 H   0  0  0  0  0  0  0  0  0  0  0  0  # atno 6907 bound_to 6896
  152.4577  134.5252  159.9804 H   0  0  0  0  0  0  0  0  0  0  0  0  # atno 6908 bound_to 6896
  151.5372  133.3401  159.2964 H   0  0  0  0  0  0  0  0  0  0  0  0  # atno 6909 bound_to 6896
  145.2982  139.2578  143.3828 H   0  0  0  0  0  0  0  0  0  0  0  0  # atno 7974 bound_to 7965
  154.9871  140.3109  155.4921 H   0  0  0  0  0  0  0  0  0  0  0  0  # atno 8008 bound_to 7997
  156.2945  140.2256  156.4914 H   0  0  0  0  0  0  0  0  0  0  0  0  # atno 8009 bound_to 7997
  154.7736  140.0450  157.1059 H   0  0  0  0  0  0  0  0  0  0  0  0  # atno 8010 bound_to 7997
  140.5378  143.2317  151.7145 H   0  0  0  0  0  0  0  0  0  0  0  0  # atno 10167 bound_to 10162
  156.3377  130.4289  149.7815 H   0  0  0  0  0  0  0  0  0  0  0  0  # atno 10718 bound_to 10713
  153.7155  135.3261  155.3255 H   0  0  0  0  0  0  0  0  0  0  0  0  # atno 10763 bound_to 10752
  154.8372  135.4487  154.1270 H   0  0  0  0  0  0  0  0  0  0  0  0  # atno 10764 bound_to 10752
  153.2376  135.6967  153.7899 H   0  0  0  0  0  0  0  0  0  0  0  0  # atno 10765 bound_to 10752
  139.8965  134.8303  156.2616 H   0  0  0  0  0  0  0  0  0  0  0  0  # atno 11005 bound_to 11000
  146.3161  140.3490  142.8654 LP  0  0  0  0  0  0  0  0  0  0  0  0  # atno 17320 bound_to 7965
  144.9116  140.7763  143.5804 LP  0  0  0  0  0  0  0  0  0  0  0  0  # atno 17321 bound_to 7965
  139.4977  144.4016  152.0175 LP  0  0  0  0  0  0  0  0  0  0  0  0  # atno 17342 bound_to 10162
  140.3122  144.3524  150.6031 LP  0  0  0  0  0  0  0  0  0  0  0  0  # atno 17343 bound_to 10162
  156.5063  130.8152  151.3152 LP  0  0  0  0  0  0  0  0  0  0  0  0  # atno 17370 bound_to 10713
  157.7441  130.9928  150.2650 LP  0  0  0  0  0  0  0  0  0  0  0  0  # atno 17371 bound_to 10713
  141.0159  133.7069  156.1187 LP  0  0  0  0  0  0  0  0  0  0  0  0  # atno 17394 bound_to 11000
  140.7302  134.4262  157.5566 LP  0  0  0  0  0  0  0  0  0  0  0  0  # atno 17395 bound_to 11000

$$$$
