AV-unprocessed.smi:35|AV-procd|sdf|276|dock9
  -GOLD-   2262016 43D 1   1.00000     0.00000
 Structure written by MMmdl.
 28 29  0  0  0  0  0  0  0  0  2 V2000
  151.7476  134.7183  157.1973 O   0  0  0  0  0  0  0  0  0  0  0  0
  151.7886  135.9374  157.0418 C   0  0  0  0  0  0  0  0  0  0  0  0
  152.6995  136.5511  156.2318 N   0  5  0  0  0  0  0  0  0  0  0  0
  152.7371  137.9050  156.0572 C   0  0  0  0  0  0  0  0  0  0  0  0
  153.5721  138.4697  155.3503 O   0  0  0  0  0  0  0  0  0  0  0  0
  151.7773  138.7112  156.7286 N   0  0  0  0  0  0  0  0  0  0  0  0
  151.8120  140.2117  156.5480 C   0  0  1  0  0  0  0  0  0  0  0  0
  151.1945  140.5401  155.3364 O   0  0  0  0  0  0  0  0  0  0  0  0
  150.1940  141.5318  155.5436 C   0  0  1  0  0  0  0  0  0  0  0  0
  149.1008  141.3758  154.4742 C   0  0  0  0  0  0  0  0  0  0  0  0
  148.2105  142.4711  154.5065 O   0  0  0  0  0  0  0  0  0  0  0  0
  149.7358  141.2796  156.9815 C   0  0  2  0  0  0  0  0  0  0  0  0
  149.0987  142.3919  157.5808 O   0  0  0  0  0  0  0  0  0  0  0  0
  151.0347  140.8998  157.6812 C   0  0  2  0  0  0  0  0  0  0  0  0
  151.7481  142.0227  158.1666 O   0  0  0  0  0  0  0  0  0  0  0  0
  150.8554  138.1192  157.5753 C   0  0  0  0  0  0  0  0  0  0  0  0
  150.8301  136.7825  157.7494 C   0  0  0  0  0  0  0  0  0  0  0  0
  149.4585  136.0729  158.9912 Br  0  0  0  0  0  0  0  0  0  0  0  0
  152.8666  140.4875  156.4943 H   0  0  0  0  0  0  0  0  0  0  0  0
  150.6779  142.5070  155.4626 H   0  0  0  0  0  0  0  0  0  0  0  0
  149.5532  141.3390  153.4830 H   0  0  0  0  0  0  0  0  0  0  0  0
  148.5485  140.4455  154.6094 H   0  0  0  0  0  0  0  0  0  0  0  0
  148.6541  143.2079  154.8977 H   0  0  0  0  0  0  0  0  0  0  0  0
  149.0557  140.4270  157.0044 H   0  0  0  0  0  0  0  0  0  0  0  0
  148.8703  143.0030  156.8968 H   0  0  0  0  0  0  0  0  0  0  0  0
  150.8606  140.2182  158.5153 H   0  0  0  0  0  0  0  0  0  0  0  0
  151.1771  142.7750  158.1249 H   0  0  0  0  0  0  0  0  0  0  0  0
  150.1450  138.7279  158.1140 H   0  0  0  0  0  0  0  0  0  0  0  0
  1  2  2  0  0  0  0
  2 17  1  0  0  0  0
  2  3  1  0  0  0  0
  3  4  1  0  0  0  0
  4  5  2  0  0  0  0
  4  6  1  0  0  0  0
  6  7  1  0  0  0  0
  6 16  1  0  0  0  0
  7 14  1  0  0  0  0
  7  8  1  0  0  0  0
  7 19  1  0  0  0  0
  8  9  1  0  0  0  0
  9 10  1  0  0  0  0
  9 12  1  0  0  0  0
  9 20  1  0  0  0  0
 10 11  1  0  0  0  0
 10 21  1  0  0  0  0
 10 22  1  0  0  0  0
 11 23  1  0  0  0  0
 12 13  1  0  0  0  0
 12 14  1  0  0  0  0
 12 24  1  0  0  0  0
 13 25  1  0  0  0  0
 14 15  1  0  0  0  0
 14 26  1  0  0  0  0
 15 27  1  0  0  0  0
 16 17  2  0  0  0  0
 16 28  1  0  0  0  0
 17 18  1  0  0  0  0
M  CHG  1   3  -1
M  END
> <s_m_source_file>
AV-unprocessed.smi

> <i_m_source_file_index>
35

> <i_lp_mmshare_version>
43012

> <i_f3d_flags>
0

> <s_epik_input>
Tz1jMVtuSF1jKD1PKW4oW2NIXWMxQnIpW0NAQEhdMk9bQ0BASF0oW0NIMl1bT0hdKVtDQEBIXShbT0hdKVtDQEhdMltPSF0=

> <s_epik_cmdline>
J2VwaWtfcHl0aG9uJywgJy1waCcsICc3LjAnLCAnLXRuJywgJzgnLCAnLW1hJywgJzIwMCcsICctbWV0YWxfYmluZGluZycsICctaW1hZScsICc8aW5maWxlLm1hZT4nLCAnLW9tYWUnLCAnPG91dGZpbGUubWFlPic=

> <r_epik_Ionization_Penalty>
1.06112

> <r_epik_Ionization_Penalty_Charging>
2.1796e-09

> <r_epik_Ionization_Penalty_Neutral>
1.06112

> <r_epik_State_Penalty>
1.11484

> <r_epik_Charging_Adjusted_Penalty>
1.11484

> <i_epik_Tot_Q>
-1

> <i_epik_Tot_abs_Q>
1

> <r_epik_Metal_State_Penalty>
0.0032876

> <b_epik_Metal_Only>
0

> <s_epik_Chemistry_Notes>
This compound contains an acetal/aminal-like group ( X-CH(R)-Y where X, Y are N, S, or O) that may be acid/base labile, releasing an aldehyde.

> <s_lp_Force_Field>
OPLS_2005

> <r_lp_Energy>
40.7288

> <b_lp_Chiralities_Consistent>
1

> <s_lp_Variant>
AV-unprocessed.smi:35-30

> <Gold.Version>
5.8.1

> <Gold.Id.Protein>
6NUR|6NUR_protein|mol2

> <Gold.PLP.Fitness>
41.0792

> <Gold.PLP.PLP>
-24.9791

> <Gold.PLP.part.hbond>
-7.1913

> <Gold.PLP.part.metal>
0.0000

> <Gold.PLP.part.buried>
-2.2417

> <Gold.PLP.part.nonpolar>
-15.3880

> <Gold.PLP.part.repulsive>
0.0439

> <Gold.PLP.ligand.clash>
0.0000

> <Gold.PLP.ligand.torsion>
0.5775

> <Gold.PLP.Chemscore.Hbond>
5.7474

> <Gold.PLP.Chemscore.CHOScore>
0.0000

> <Gold.PLP.Chemscore.Metal>
0.0000

> <Gold.Chemscore.Hbonds>
donor molecule, donor type, donor heavy atom, donor atom, acceptor molecule, acceptor atom, score
      L1  H    11    23       P1  8028  1.00
      L1  H    13    25       P1  8028  0.81
      P1  H  7989  7998       L1     8  0.90
      P1  H  7997  8008       L1     5  0.82
      P1  H 10752 10763       L1     3  2.00

> <Gold.PLP.Chemscore.Internal.Correction>
0.0129

> <Gold.Rescore>
     Score         DG    S(hbond)    S(metal)    S(lipo)     H(rot)  DE(clash)    DE(int)     intcor
     12.67     -13.14       3.82        0.00      35.79       3.63       0.01       0.46       ----

> <Gold.Chemscore.Fitness>
12.6723

> <Gold.Chemscore.DG>
-13.1434

> <Gold.Chemscore.ZeroCoef>
-5.4800

> <Gold.Chemscore.Hbond>
3.8200

> <Gold.Chemscore.Metal>
0.0000

> <Gold.Chemscore.Lipo>
35.7889

> <Gold.Chemscore.Internal_Hbond>
0.0000

> <Gold.Chemscore.DEClash>
0.0073

> <Gold.Chemscore.DEInternal>
0.4638

> <Gold.Chemscore.Rot>
3.6261

> <Gold.Chemscore.Internal.Correction>
   9.000000E+99

> <Gold.Chemscore.Hbonds>
donor molecule, donor type, donor heavy atom, donor atom, acceptor molecule, acceptor atom, score
      L1  H    11    23       P1  8028  0.99
      L1  H    13    25       P1  8028  0.67
      P1  H  6896  6907       L1     1  0.01
      P1  H  7989  7998       L1     8  0.22
      P1  H  7997  8008       L1     5  0.75
      P1  H 10752 10763       L1     3  0.66

> <Gold.Chemscore.Hbond.Weighted>
-12.7589

> <Gold.Chemscore.Metal.Weighted>
-0.0000

> <Gold.Chemscore.Lipo.Weighted>
-4.1873

> <Gold.Chemscore.Internal_Hbond.Weighted>
0.0000

> <Gold.Chemscore.DEClash.Weighted>
0.0073

> <Gold.Chemscore.DEInternal.Weighted>
0.4638

> <Gold.Chemscore.Rot.Weighted>
9.2828

> <Gold.Chemscore.Internal.Correction.Weighted>
   9.000000E+99

> <Gold.Protein.RotatedTorsions>
[ 6907 6896 6895 6894 ] final -124.12 input  -60.11 | X-H torsion
[ 7974 7965 7964 7962 ] final  -90.16 input  175.53 | X-H torsion
[ 8008 7997 7996 7995 ] final  -24.53 input   59.86 | X-H torsion
[ 10167 10162 10161 10158 ] final   66.69 input  -65.29 | X-H torsion
[ 10718 10713 10712 10709 ] final   79.49 input   66.30 | X-H torsion
[ 10763 10752 10751 10750 ] final  103.33 input  -60.55 | X-H torsion
[ 11005 11000 10999 10996 ] final  126.52 input  -57.11 | X-H torsion

> <Gold.Protein.ActiveResidues>
 VAL166  LYS551  ARG553  GLY616  TRP617  ASP618  TYR619  PRO620  LYS621  CYS622 
 ASP623  PHE694  ASN695  SER759  ASP760  ASP761  ALA762  ILE779  LEU786  VAL792 
 PHE793  MET794  SER795  GLU796  ALA797  LYS798  CYS799  TRP800  GLU811  SER814 

> <Gold.Protein.RotatedAtoms>
  150.8737  133.7469  159.2952 H   0  0  0  0  0  0  0  0  0  0  0  0  # atno 6907 bound_to 6896
  151.5072  135.1062  159.9854 H   0  0  0  0  0  0  0  0  0  0  0  0  # atno 6908 bound_to 6896
  152.4713  133.7991  159.6999 H   0  0  0  0  0  0  0  0  0  0  0  0  # atno 6909 bound_to 6896
  145.4302  140.9555  143.2132 H   0  0  0  0  0  0  0  0  0  0  0  0  # atno 7974 bound_to 7965
  154.4524  140.1951  156.0479 H   0  0  0  0  0  0  0  0  0  0  0  0  # atno 8008 bound_to 7997
  156.0676  140.3288  155.7509 H   0  0  0  0  0  0  0  0  0  0  0  0  # atno 8009 bound_to 7997
  155.5314  140.0578  157.2879 H   0  0  0  0  0  0  0  0  0  0  0  0  # atno 8010 bound_to 7997
  140.0977  144.4932  150.7058 H   0  0  0  0  0  0  0  0  0  0  0  0  # atno 10167 bound_to 10162
  157.6778  130.9916  150.1940 H   0  0  0  0  0  0  0  0  0  0  0  0  # atno 10718 bound_to 10713
  153.3512  135.3980  155.1647 H   0  0  0  0  0  0  0  0  0  0  0  0  # atno 10763 bound_to 10752
  154.8662  135.3657  154.5219 H   0  0  0  0  0  0  0  0  0  0  0  0  # atno 10764 bound_to 10752
  153.5671  135.7080  153.5581 H   0  0  0  0  0  0  0  0  0  0  0  0  # atno 10765 bound_to 10752
  139.9460  134.9629  156.8719 H   0  0  0  0  0  0  0  0  0  0  0  0  # atno 11005 bound_to 11000
  144.8188  139.5829  143.6996 LP  0  0  0  0  0  0  0  0  0  0  0  0  # atno 17320 bound_to 7965
  146.2611  139.6413  142.9361 LP  0  0  0  0  0  0  0  0  0  0  0  0  # atno 17321 bound_to 7965
  140.6995  143.2425  151.4906 LP  0  0  0  0  0  0  0  0  0  0  0  0  # atno 17342 bound_to 10162
  139.5689  144.1976  152.1807 LP  0  0  0  0  0  0  0  0  0  0  0  0  # atno 17343 bound_to 10162
  156.2645  130.3714  149.8095 LP  0  0  0  0  0  0  0  0  0  0  0  0  # atno 17370 bound_to 10713
  156.5830  130.8474  151.3388 LP  0  0  0  0  0  0  0  0  0  0  0  0  # atno 17371 bound_to 10713
  140.5833  134.0331  155.7472 LP  0  0  0  0  0  0  0  0  0  0  0  0  # atno 17394 bound_to 11000
  141.1111  133.9615  157.2909 LP  0  0  0  0  0  0  0  0  0  0  0  0  # atno 17395 bound_to 11000

$$$$
