AV-unprocessed.smi:3085|AV-procd|sdf|11753|dock1
  -GOLD-   2272017143D 1   1.00000     0.00000
 Structure written by MMmdl.
 28 29  0  0  0  0  0  0  0  0  2 V2000
  152.7687  141.9399  159.6162 C   0  0  0  0  0  0  0  0  0  0  0  0
  152.2573  140.7379  158.8141 C   0  0  0  0  0  0  0  0  0  0  0  0
  151.3707  141.1485  157.6854 C   0  0  0  0  0  0  0  0  0  0  0  0
  150.9112  140.2665  156.7469 N   0  0  0  0  0  0  0  0  0  0  0  0
  150.2276  141.0928  155.9605 C   0  0  0  0  0  0  0  0  0  0  0  0
  149.4879  140.6981  154.7213 C   0  0  1  0  0  0  0  0  0  0  0  0
  149.6154  139.1934  154.4141 C   0  0  0  0  0  0  0  0  0  0  0  0
  148.7876  138.8457  153.2427 N   0  3  0  0  0  0  0  0  0  0  0  0
  147.3839  139.2628  153.4310 C   0  0  0  0  0  0  0  0  0  0  0  0
  147.3187  140.7612  153.7756 C   0  0  0  0  0  0  0  0  0  0  0  0
  148.1155  141.0251  154.9260 O   0  0  0  0  0  0  0  0  0  0  0  0
  150.2859  142.3588  156.3805 N   0  0  0  0  0  0  0  0  0  0  0  0
  151.0335  142.4242  157.5020 N   0  0  0  0  0  0  0  0  0  0  0  0
  149.8597  143.1698  155.9556 H   0  0  0  0  0  0  0  0  0  0  0  0
  153.4077  141.6158  160.4377 H   0  0  0  0  0  0  0  0  0  0  0  0
  151.9419  142.5091  160.0421 H   0  0  0  0  0  0  0  0  0  0  0  0
  153.3505  142.6136  158.9867 H   0  0  0  0  0  0  0  0  0  0  0  0
  153.1007  140.1720  158.4169 H   0  0  0  0  0  0  0  0  0  0  0  0
  151.7120  140.0593  159.4711 H   0  0  0  0  0  0  0  0  0  0  0  0
  149.8754  141.2852  153.8859 H   0  0  0  0  0  0  0  0  0  0  0  0
  150.6537  138.9258  154.2160 H   0  0  0  0  0  0  0  0  0  0  0  0
  149.2869  138.5996  155.2684 H   0  0  0  0  0  0  0  0  0  0  0  0
  149.1594  139.3184  152.4311 H   0  0  0  0  0  0  0  0  0  0  0  0
  146.8176  139.0510  152.5237 H   0  0  0  0  0  0  0  0  0  0  0  0
  146.9392  138.6724  154.2333 H   0  0  0  0  0  0  0  0  0  0  0  0
  147.6610  141.3685  152.9362 H   0  0  0  0  0  0  0  0  0  0  0  0
  146.2896  141.0555  153.9827 H   0  0  0  0  0  0  0  0  0  0  0  0
  148.8243  137.8480  153.0886 H   0  0  0  0  0  0  0  0  0  0  0  0
  1  2  1  0  0  0  0
  1 15  1  0  0  0  0
  1 16  1  0  0  0  0
  1 17  1  0  0  0  0
  2 18  1  0  0  0  0
  2 19  1  0  0  0  0
  2  3  1  0  0  0  0
  3  4  1  0  0  0  0
  3 13  2  0  0  0  0
  4  5  2  0  0  0  0
  5  6  1  0  0  0  0
  5 12  1  0  0  0  0
  6 11  1  0  0  0  0
  6  7  1  0  0  0  0
  6 20  1  0  0  0  0
  7  8  1  0  0  0  0
  7 21  1  0  0  0  0
  7 22  1  0  0  0  0
  8  9  1  0  0  0  0
  8 23  1  0  0  0  0
  8 28  1  0  0  0  0
  9 10  1  0  0  0  0
  9 24  1  0  0  0  0
  9 25  1  0  0  0  0
 10 11  1  0  0  0  0
 10 26  1  0  0  0  0
 10 27  1  0  0  0  0
 12 13  1  0  0  0  0
 12 14  1  0  0  0  0
M  CHG  1   8   1
M  END
> <s_m_source_file>
AV-unprocessed.smi

> <i_m_source_file_index>
3085

> <i_lp_mmshare_version>
43012

> <i_f3d_flags>
0

> <s_epik_input>
W0NIM11bQ0gyXWMxbmMobltuSF0xKVtDQEBIXTJbQ0gyXVtOSF1bQ0gyXVtDSDJdTzI=

> <s_epik_cmdline>
J2VwaWtfcHl0aG9uJywgJy1waCcsICc3LjAnLCAnLXRuJywgJzgnLCAnLW1hJywgJzIwMCcsICctbWV0YWxfYmluZGluZycsICctaW1hZScsICc8aW5maWxlLm1hZT4nLCAnLW9tYWUnLCAnPG91dGZpbGUubWFlPic=

> <r_epik_Ionization_Penalty>
0.162344

> <r_epik_Ionization_Penalty_Charging>
0.125708

> <r_epik_Ionization_Penalty_Neutral>
0.0366364

> <r_epik_State_Penalty>
0.637958

> <r_epik_Charging_Adjusted_Penalty>
0.763666

> <i_epik_Tot_Q>
1

> <i_epik_Tot_abs_Q>
1

> <r_epik_Metal_State_Penalty>
0.860091

> <b_epik_Metal_Only>
0

> <s_lp_Force_Field>
OPLS_2005

> <r_lp_Energy>
9.17309

> <b_lp_Chiralities_Consistent>
1

> <s_lp_Variant>
AV-unprocessed.smi:3085-4

> <Gold.Version>
5.8.1

> <Gold.Id.Protein>
6NUR|6NUR_protein|mol2

> <Gold.PLP.Fitness>
36.2375

> <Gold.PLP.PLP>
-24.5262

> <Gold.PLP.part.hbond>
-2.9284

> <Gold.PLP.part.metal>
0.0000

> <Gold.PLP.part.buried>
-4.3227

> <Gold.PLP.part.nonpolar>
-18.5848

> <Gold.PLP.part.repulsive>
0.3678

> <Gold.PLP.ligand.clash>
0.0000

> <Gold.PLP.ligand.torsion>
0.0379

> <Gold.PLP.Chemscore.Hbond>
3.9265

> <Gold.PLP.Chemscore.CHOScore>
0.0000

> <Gold.PLP.Chemscore.Metal>
0.0000

> <Gold.Chemscore.Hbonds>
donor molecule, donor type, donor heavy atom, donor atom, acceptor molecule, acceptor atom, score
      L1  H     8    23       P1  7957  0.98
      L1  H     8    28       P1  7948  2.00
      L1  H    12    14       P1  8028  1.00

> <Gold.PLP.Chemscore.Internal.Correction>
0.0076

> <Gold.Rescore>
     Score         DG    S(hbond)    S(metal)    S(lipo)     H(rot)  DE(clash)    DE(int)     intcor
     17.06     -17.08       2.86        0.00      45.85       1.30       0.00       0.02       ----

> <Gold.Chemscore.Fitness>
17.0583

> <Gold.Chemscore.DG>
-17.0761

> <Gold.Chemscore.ZeroCoef>
-5.4800

> <Gold.Chemscore.Hbond>
2.8631

> <Gold.Chemscore.Metal>
0.0000

> <Gold.Chemscore.Lipo>
45.8477

> <Gold.Chemscore.Internal_Hbond>
0.0000

> <Gold.Chemscore.DEClash>
0.0000

> <Gold.Chemscore.DEInternal>
0.0178

> <Gold.Chemscore.Rot>
1.3011

> <Gold.Chemscore.Internal.Correction>
   9.000000E+99

> <Gold.Chemscore.Hbonds>
donor molecule, donor type, donor heavy atom, donor atom, acceptor molecule, acceptor atom, score
      L1  H     8    23       P1  7957  0.91
      L1  H     8    28       P1  7948  0.91
      L1  H    12    14       P1  8028  1.00

> <Gold.Chemscore.Hbond.Weighted>
-9.5627

> <Gold.Chemscore.Metal.Weighted>
-0.0000

> <Gold.Chemscore.Lipo.Weighted>
-5.3642

> <Gold.Chemscore.Internal_Hbond.Weighted>
0.0000

> <Gold.Chemscore.DEClash.Weighted>
0.0000

> <Gold.Chemscore.DEInternal.Weighted>
0.0178

> <Gold.Chemscore.Rot.Weighted>
3.3308

> <Gold.Chemscore.Internal.Correction.Weighted>
   9.000000E+99

> <Gold.Protein.RotatedTorsions>
[ 6907 6896 6895 6894 ] final -162.31 input  -60.11 | X-H torsion
[ 7974 7965 7964 7962 ] final  136.72 input  175.53 | X-H torsion
[ 8008 7997 7996 7995 ] final   46.08 input   59.86 | X-H torsion
[ 10167 10162 10161 10158 ] final -174.73 input  -65.29 | X-H torsion
[ 10718 10713 10712 10709 ] final -178.03 input   66.30 | X-H torsion
[ 10763 10752 10751 10750 ] final  127.86 input  -60.55 | X-H torsion
[ 11005 11000 10999 10996 ] final   93.05 input  -57.11 | X-H torsion

> <Gold.Protein.ActiveResidues>
 VAL166  LYS551  ARG553  GLY616  TRP617  ASP618  TYR619  PRO620  LYS621  CYS622 
 ASP623  PHE694  ASN695  SER759  ASP760  ASP761  ALA762  ILE779  LEU786  VAL792 
 PHE793  MET794  SER795  GLU796  ALA797  LYS798  CYS799  TRP800  GLU811  SER814 

> <Gold.Protein.RotatedAtoms>
  151.3783  133.3830  159.2706 H   0  0  0  0  0  0  0  0  0  0  0  0  # atno 6907 bound_to 6896
  150.9597  134.8988  159.7733 H   0  0  0  0  0  0  0  0  0  0  0  0  # atno 6908 bound_to 6896
  152.5145  134.3741  159.9381 H   0  0  0  0  0  0  0  0  0  0  0  0  # atno 6909 bound_to 6896
  144.9537  139.4789  143.5513 H   0  0  0  0  0  0  0  0  0  0  0  0  # atno 7974 bound_to 7965
  155.3465  140.3411  155.4239 H   0  0  0  0  0  0  0  0  0  0  0  0  # atno 8008 bound_to 7997
  156.1786  140.1656  156.8351 H   0  0  0  0  0  0  0  0  0  0  0  0  # atno 8009 bound_to 7997
  154.5309  140.0745  156.8326 H   0  0  0  0  0  0  0  0  0  0  0  0  # atno 8010 bound_to 7997
  139.5618  144.1852  152.1250 H   0  0  0  0  0  0  0  0  0  0  0  0  # atno 10167 bound_to 10162
  156.8382  130.9677  151.3102 H   0  0  0  0  0  0  0  0  0  0  0  0  # atno 10718 bound_to 10713
  153.7162  135.3260  155.3257 H   0  0  0  0  0  0  0  0  0  0  0  0  # atno 10763 bound_to 10752
  154.8370  135.4488  154.1264 H   0  0  0  0  0  0  0  0  0  0  0  0  # atno 10764 bound_to 10752
  153.2371  135.6967  153.7904 H   0  0  0  0  0  0  0  0  0  0  0  0  # atno 10765 bound_to 10752
  139.8815  134.8768  156.3661 H   0  0  0  0  0  0  0  0  0  0  0  0  # atno 11005 bound_to 11000
  146.3330  139.8640  142.8851 LP  0  0  0  0  0  0  0  0  0  0  0  0  # atno 17320 bound_to 7965
  145.2805  141.0137  143.3720 LP  0  0  0  0  0  0  0  0  0  0  0  0  # atno 17321 bound_to 7965
  140.1367  144.5240  150.6769 LP  0  0  0  0  0  0  0  0  0  0  0  0  # atno 17342 bound_to 10162
  140.6898  143.2370  151.5161 LP  0  0  0  0  0  0  0  0  0  0  0  0  # atno 17343 bound_to 10162
  157.6370  130.8774  149.9377 LP  0  0  0  0  0  0  0  0  0  0  0  0  # atno 17370 bound_to 10713
  156.0895  130.3664  150.0422 LP  0  0  0  0  0  0  0  0  0  0  0  0  # atno 17371 bound_to 10713
  140.9496  133.7460  156.0254 LP  0  0  0  0  0  0  0  0  0  0  0  0  # atno 17394 bound_to 11000
  140.8121  134.3387  157.5408 LP  0  0  0  0  0  0  0  0  0  0  0  0  # atno 17395 bound_to 11000

$$$$
