AV-unprocessed.smi:2969|AV-procd|sdf|11330|dock6
  -GOLD-   2272016243D 1   1.00000     0.00000
 Structure written by MMmdl.
 39 39  0  0  0  0  0  0  0  0  2 V2000
  147.4123  141.9287  154.5817 C   0  0  0  0  0  0  0  0  0  0  0  0
  148.2021  140.8225  155.2937 C   0  0  0  0  0  0  0  0  0  0  0  0
  147.8031  140.6029  156.7686 C   0  0  0  0  0  0  0  0  0  0  0  0
  148.4693  139.4294  157.3792 N   0  0  0  0  0  0  0  0  0  0  0  0
  147.6718  138.4587  158.0441 C   0  0  0  0  0  0  0  0  0  0  0  0
  146.2964  138.6338  158.0914 N   0  0  0  0  0  0  0  0  0  0  0  0
  148.2594  137.3827  158.6315 C   0  0  0  0  0  0  0  0  0  0  0  0
  147.5196  136.3854  159.2920 N   0  0  0  0  0  0  0  0  0  0  0  0
  147.0230  135.2771  158.4603 C   0  0  0  0  0  0  0  0  0  0  0  0
  148.1421  134.6020  157.6409 C   0  0  0  0  0  0  0  0  0  0  0  0
  147.6140  133.7795  156.6099 O   0  0  0  0  0  0  0  0  0  0  0  0
  148.5618  133.4162  155.6179 C   0  0  0  0  0  0  0  0  0  0  0  0
  147.3612  136.3670  160.6434 C   0  0  0  0  0  0  0  0  0  0  0  0
  147.7898  137.2785  161.3549 O   0  0  0  0  0  0  0  0  0  0  0  0
  146.6474  135.1851  161.3343 C   0  0  0  0  0  0  0  0  0  0  0  0
  145.3732  135.1250  160.9498 F   0  0  0  0  0  0  0  0  0  0  0  0
  147.2634  134.0385  161.0476 F   0  0  0  0  0  0  0  0  0  0  0  0
  146.6782  135.3557  162.6574 F   0  0  0  0  0  0  0  0  0  0  0  0
  149.7143  137.2240  158.5290 C   0  0  0  0  0  0  0  0  0  0  0  0
  150.2636  136.2393  159.0234 O   0  0  0  0  0  0  0  0  0  0  0  0
  150.4112  138.1912  157.8773 N   0  5  0  0  0  0  0  0  0  0  0  0
  149.8296  139.2858  157.3086 C   0  0  0  0  0  0  0  0  0  0  0  0
  150.5007  140.1468  156.7382 O   0  0  0  0  0  0  0  0  0  0  0  0
  147.7875  142.0821  153.5700 H   0  0  0  0  0  0  0  0  0  0  0  0
  147.4940  142.8762  155.1150 H   0  0  0  0  0  0  0  0  0  0  0  0
  146.3547  141.6760  154.5037 H   0  0  0  0  0  0  0  0  0  0  0  0
  148.0961  139.8934  154.7336 H   0  0  0  0  0  0  0  0  0  0  0  0
  149.2625  141.0732  155.2555 H   0  0  0  0  0  0  0  0  0  0  0  0
  148.0339  141.4990  157.3452 H   0  0  0  0  0  0  0  0  0  0  0  0
  146.7164  140.5374  156.8363 H   0  0  0  0  0  0  0  0  0  0  0  0
  145.8433  139.4304  157.6676 H   0  0  0  0  0  0  0  0  0  0  0  0
  145.6916  137.9545  158.5305 H   0  0  0  0  0  0  0  0  0  0  0  0
  146.5482  134.5237  159.0914 H   0  0  0  0  0  0  0  0  0  0  0  0
  146.2302  135.6481  157.8098 H   0  0  0  0  0  0  0  0  0  0  0  0
  148.8416  135.3300  157.2276 H   0  0  0  0  0  0  0  0  0  0  0  0
  148.7244  133.9544  158.2950 H   0  0  0  0  0  0  0  0  0  0  0  0
  148.0905  132.7525  154.8932 H   0  0  0  0  0  0  0  0  0  0  0  0
  149.4074  132.8845  156.0559 H   0  0  0  0  0  0  0  0  0  0  0  0
  148.9376  134.2831  155.0750 H   0  0  0  0  0  0  0  0  0  0  0  0
  1  2  1  0  0  0  0
  1 24  1  0  0  0  0
  1 25  1  0  0  0  0
  1 26  1  0  0  0  0
  2  3  1  0  0  0  0
  2 27  1  0  0  0  0
  2 28  1  0  0  0  0
  3  4  1  0  0  0  0
  3 29  1  0  0  0  0
  3 30  1  0  0  0  0
  4 22  1  0  0  0  0
  4  5  1  0  0  0  0
  5  6  1  0  0  0  0
  5  7  2  0  0  0  0
  6 31  1  0  0  0  0
  6 32  1  0  0  0  0
  7  8  1  0  0  0  0
  7 19  1  0  0  0  0
  8  9  1  0  0  0  0
  8 13  1  0  0  0  0
  9 10  1  0  0  0  0
  9 33  1  0  0  0  0
  9 34  1  0  0  0  0
 10 11  1  0  0  0  0
 10 35  1  0  0  0  0
 10 36  1  0  0  0  0
 11 12  1  0  0  0  0
 12 37  1  0  0  0  0
 12 38  1  0  0  0  0
 12 39  1  0  0  0  0
 13 14  2  0  0  0  0
 13 15  1  0  0  0  0
 15 16  1  0  0  0  0
 15 17  1  0  0  0  0
 15 18  1  0  0  0  0
 19 20  2  0  0  0  0
 19 21  1  0  0  0  0
 21 22  1  0  0  0  0
 22 23  2  0  0  0  0
M  CHG  1  21  -1
M  END
> <s_m_source_file>
AV-unprocessed.smi

> <i_m_source_file_index>
2969

> <i_lp_mmshare_version>
43012

> <i_f3d_flags>
0

> <s_epik_input>
W0NIM11bQ0gyXVtDSDJdbjFjKFtOSDJdKWMoYyg9TylbbkhdYzE9TylOKEMoPU8pQyhGKShGKUYpW0NIMl1bQ0gyXU9bQ0gzXQ==

> <s_epik_cmdline>
J2VwaWtfcHl0aG9uJywgJy1waCcsICc3LjAnLCAnLXRuJywgJzgnLCAnLW1hJywgJzIwMCcsICctbWV0YWxfYmluZGluZycsICctaW1hZScsICc8aW5maWxlLm1hZT4nLCAnLW9tYWUnLCAnPG91dGZpbGUubWFlPic=

> <r_lp_tautomer_probability>
1

> <r_epik_Ionization_Penalty>
4.29138

> <r_epik_Ionization_Penalty_Charging>
0.0262752

> <r_epik_Ionization_Penalty_Neutral>
4.26511

> <r_epik_State_Penalty>
4.26466

> <r_epik_Charging_Adjusted_Penalty>
4.29094

> <i_epik_Tot_Q>
-1

> <i_epik_Tot_abs_Q>
1

> <r_epik_Metal_State_Penalty>
0.502851

> <b_epik_Metal_Only>
1

> <s_epik_Chemistry_Notes>
This compound has an imine and may undergo hydrolysis.

> <s_lp_Force_Field>
OPLS_2005

> <r_lp_Energy>
42.256

> <b_lp_Chiralities_Consistent>
1

> <s_lp_Variant>
AV-unprocessed.smi:2969-2

> <Gold.Version>
5.8.1

> <Gold.Id.Protein>
6NUR|6NUR_protein|mol2

> <Gold.PLP.Fitness>
33.3484

> <Gold.PLP.PLP>
-27.0813

> <Gold.PLP.part.hbond>
-3.0000

> <Gold.PLP.part.metal>
0.0000

> <Gold.PLP.part.buried>
-4.7361

> <Gold.PLP.part.nonpolar>
-19.3953

> <Gold.PLP.part.repulsive>
0.0852

> <Gold.PLP.ligand.clash>
4.2866

> <Gold.PLP.ligand.torsion>
1.7360

> <Gold.PLP.Chemscore.Hbond>
2.7920

> <Gold.PLP.Chemscore.CHOScore>
0.0000

> <Gold.PLP.Chemscore.Metal>
0.0000

> <Gold.Chemscore.Hbonds>
donor molecule, donor type, donor heavy atom, donor atom, acceptor molecule, acceptor atom, score
      P1  H  6896  6908       L1    20  1.00
      P1  H  6931  6943       L1    14  0.96
      P1  H  6934  6947       L1    14  0.75

> <Gold.PLP.Chemscore.Internal.Correction>
5.6496

> <Gold.Rescore>
     Score         DG    S(hbond)    S(metal)    S(lipo)     H(rot)  DE(clash)    DE(int)     intcor
      8.39     -12.95       2.79        0.00      33.00       2.24       0.00       4.56       ----

> <Gold.Chemscore.Fitness>
8.3890

> <Gold.Chemscore.DG>
-12.9492

> <Gold.Chemscore.ZeroCoef>
-5.4800

> <Gold.Chemscore.Hbond>
2.7945

> <Gold.Chemscore.Metal>
0.0000

> <Gold.Chemscore.Lipo>
33.0019

> <Gold.Chemscore.Internal_Hbond>
0.0000

> <Gold.Chemscore.DEClash>
0.0009

> <Gold.Chemscore.DEInternal>
4.5593

> <Gold.Chemscore.Rot>
2.2366

> <Gold.Chemscore.Internal.Correction>
   9.000000E+99

> <Gold.Chemscore.Hbonds>
donor molecule, donor type, donor heavy atom, donor atom, acceptor molecule, acceptor atom, score
      P1  H  6896  6908       L1    20  0.99
      P1  H  6931  6943       L1    14  0.92
      P1  H  6934  6947       L1    14  0.71

> <Gold.Chemscore.Hbond.Weighted>
-9.3337

> <Gold.Chemscore.Metal.Weighted>
-0.0000

> <Gold.Chemscore.Lipo.Weighted>
-3.8612

> <Gold.Chemscore.Internal_Hbond.Weighted>
0.0000

> <Gold.Chemscore.DEClash.Weighted>
0.0009

> <Gold.Chemscore.DEInternal.Weighted>
4.5593

> <Gold.Chemscore.Rot.Weighted>
5.7257

> <Gold.Chemscore.Internal.Correction.Weighted>
   9.000000E+99

> <Gold.Protein.RotatedTorsions>
[ 6907 6896 6895 6894 ] final -164.09 input  -60.11 | X-H torsion
[ 7974 7965 7964 7962 ] final  166.55 input  175.53 | X-H torsion
[ 8008 7997 7996 7995 ] final  112.42 input   59.86 | X-H torsion
[ 10167 10162 10161 10158 ] final   88.55 input  -65.29 | X-H torsion
[ 10718 10713 10712 10709 ] final -167.95 input   66.30 | X-H torsion
[ 10763 10752 10751 10750 ] final   68.69 input  -60.55 | X-H torsion
[ 11005 11000 10999 10996 ] final   94.90 input  -57.11 | X-H torsion

> <Gold.Protein.ActiveResidues>
 VAL166  LYS551  ARG553  GLY616  TRP617  ASP618  TYR619  PRO620  LYS621  CYS622 
 ASP623  PHE694  ASN695  SER759  ASP760  ASP761  ALA762  ILE779  LEU786  VAL792 
 PHE793  MET794  SER795  GLU796  ALA797  LYS798  CYS799  TRP800  GLU811  SER814 

> <Gold.Protein.RotatedAtoms>
  151.4064  133.3741  159.2738 H   0  0  0  0  0  0  0  0  0  0  0  0  # atno 6907 bound_to 6896
  150.9395  134.8807  159.7614 H   0  0  0  0  0  0  0  0  0  0  0  0  # atno 6908 bound_to 6896
  152.5065  134.4014  159.9470 H   0  0  0  0  0  0  0  0  0  0  0  0  # atno 6909 bound_to 6896
  144.7458  139.8632  143.6382 H   0  0  0  0  0  0  0  0  0  0  0  0  # atno 7974 bound_to 7965
  156.2191  140.3000  155.9910 H   0  0  0  0  0  0  0  0  0  0  0  0  # atno 8008 bound_to 7997
  155.2528  140.0426  157.3006 H   0  0  0  0  0  0  0  0  0  0  0  0  # atno 8009 bound_to 7997
  154.5813  140.2376  155.8058 H   0  0  0  0  0  0  0  0  0  0  0  0  # atno 8010 bound_to 7997
  139.8662  144.6517  150.9001 H   0  0  0  0  0  0  0  0  0  0  0  0  # atno 10167 bound_to 10162
  156.6898  130.9155  151.3067 H   0  0  0  0  0  0  0  0  0  0  0  0  # atno 10718 bound_to 10713
  153.0248  135.5238  154.7174 H   0  0  0  0  0  0  0  0  0  0  0  0  # atno 10763 bound_to 10752
  154.6239  135.2892  155.0297 H   0  0  0  0  0  0  0  0  0  0  0  0  # atno 10764 bound_to 10752
  154.1273  135.6598  153.4967 H   0  0  0  0  0  0  0  0  0  0  0  0  # atno 10765 bound_to 10752
  139.8794  134.8870  156.3932 H   0  0  0  0  0  0  0  0  0  0  0  0  # atno 11005 bound_to 11000
  146.1333  139.4373  143.0155 LP  0  0  0  0  0  0  0  0  0  0  0  0  # atno 17320 bound_to 7965
  145.7129  141.0100  143.1443 LP  0  0  0  0  0  0  0  0  0  0  0  0  # atno 17321 bound_to 7965
  140.7768  143.3702  151.1663 LP  0  0  0  0  0  0  0  0  0  0  0  0  # atno 17342 bound_to 10162
  139.7327  143.9048  152.3025 LP  0  0  0  0  0  0  0  0  0  0  0  0  # atno 17343 bound_to 10162
  157.7013  130.9336  150.0794 LP  0  0  0  0  0  0  0  0  0  0  0  0  # atno 17370 bound_to 10713
  156.1806  130.3650  149.9040 LP  0  0  0  0  0  0  0  0  0  0  0  0  # atno 17371 bound_to 10713
  140.9318  133.7574  156.0034 LP  0  0  0  0  0  0  0  0  0  0  0  0  # atno 17394 bound_to 11000
  140.8322  134.3165  157.5345 LP  0  0  0  0  0  0  0  0  0  0  0  0  # atno 17395 bound_to 11000

$$$$
