AV-unprocessed.smi:1445|AV-procd|sdf|5887|dock10
  -GOLD-   22720 5573D 1   1.00000     0.00000
 Structure written by MMmdl.
 46 47  0  0  0  0  0  0  0  0  2 V2000
  151.9759  138.3584  154.4023 C   0  0  0  0  0  0  0  0  0  0  0  0
  150.5850  138.3069  154.1024 O   0  0  0  0  0  0  0  0  0  0  0  0
  149.7985  139.3947  154.4315 C   0  0  0  0  0  0  0  0  0  0  0  0
  150.3964  140.4747  154.9944 N   0  0  0  0  0  0  0  0  0  0  0  0
  149.6331  141.5404  155.3104 C   0  0  0  0  0  0  0  0  0  0  0  0
  148.2465  141.5889  155.0801 C   0  0  0  0  0  0  0  0  0  0  0  0
  147.6235  140.4704  154.4966 C   0  0  0  0  0  0  0  0  0  0  0  0
  148.4089  139.3373  154.1697 C   0  0  0  0  0  0  0  0  0  0  0  0
  147.8942  138.1555  153.5648 N   0  0  0  0  0  0  0  0  0  0  0  0
  146.6284  137.7060  153.5146 C   0  0  0  0  0  0  0  0  0  0  0  0
  145.6510  138.2549  154.0222 O   0  0  0  0  0  0  0  0  0  0  0  0
  146.5517  136.5495  152.8407 N   0  0  0  0  0  0  0  0  0  0  0  0
  145.3184  135.8136  152.5869 C   0  0  0  0  0  0  0  0  0  0  0  0
  144.9062  135.8843  151.1032 C   0  0  0  0  0  0  0  0  0  0  0  0
  144.9977  134.5653  150.4284 N   0  3  1  0  0  0  0  0  0  0  0  0
  146.2588  133.8515  150.7563 C   0  0  0  0  0  0  0  0  0  0  0  0
  146.4022  132.5700  149.9202 C   0  0  0  0  0  0  0  0  0  0  0  0
  145.1858  131.6512  150.1040 C   0  0  0  0  0  0  0  0  0  0  0  0
  143.8699  132.4036  149.8320 C   0  0  2  0  0  0  0  0  0  0  0  0
  143.6269  132.6610  148.3343 C   0  0  0  0  0  0  0  0  0  0  0  0
  143.8076  133.7021  150.6631 C   0  0  0  0  0  0  0  0  0  0  0  0
  152.4497  137.4322  154.0779 H   0  0  0  0  0  0  0  0  0  0  0  0
  152.1491  138.4602  155.4745 H   0  0  0  0  0  0  0  0  0  0  0  0
  152.4673  139.1809  153.8805 H   0  0  0  0  0  0  0  0  0  0  0  0
  150.1439  142.3815  155.7551 H   0  0  0  0  0  0  0  0  0  0  0  0
  147.6738  142.4665  155.3412 H   0  0  0  0  0  0  0  0  0  0  0  0
  146.5638  140.5159  154.3040 H   0  0  0  0  0  0  0  0  0  0  0  0
  148.5914  137.5551  153.1490 H   0  0  0  0  0  0  0  0  0  0  0  0
  147.4031  136.1628  152.4591 H   0  0  0  0  0  0  0  0  0  0  0  0
  145.4482  134.7837  152.9201 H   0  0  0  0  0  0  0  0  0  0  0  0
  144.5340  136.2435  153.2104 H   0  0  0  0  0  0  0  0  0  0  0  0
  143.8763  136.2418  151.0592 H   0  0  0  0  0  0  0  0  0  0  0  0
  145.5073  136.6133  150.5576 H   0  0  0  0  0  0  0  0  0  0  0  0
  147.1138  134.5000  150.5612 H   0  0  0  0  0  0  0  0  0  0  0  0
  146.2778  133.6130  151.8210 H   0  0  0  0  0  0  0  0  0  0  0  0
  146.5185  132.8291  148.8675 H   0  0  0  0  0  0  0  0  0  0  0  0
  147.3118  132.0407  150.2057 H   0  0  0  0  0  0  0  0  0  0  0  0
  145.2692  130.7766  149.4578 H   0  0  0  0  0  0  0  0  0  0  0  0
  145.1773  131.2739  151.1276 H   0  0  0  0  0  0  0  0  0  0  0  0
  143.0548  131.7612  150.1682 H   0  0  0  0  0  0  0  0  0  0  0  0
  144.3845  133.3161  147.9042 H   0  0  0  0  0  0  0  0  0  0  0  0
  142.6563  133.1306  148.1717 H   0  0  0  0  0  0  0  0  0  0  0  0
  143.6360  131.7280  147.7701 H   0  0  0  0  0  0  0  0  0  0  0  0
  143.7520  133.4569  151.7249 H   0  0  0  0  0  0  0  0  0  0  0  0
  142.8887  134.2357  150.4236 H   0  0  0  0  0  0  0  0  0  0  0  0
  145.0337  134.7548  149.4370 H   0  0  0  0  0  0  0  0  0  0  0  0
  1  2  1  0  0  0  0
  1 22  1  0  0  0  0
  1 23  1  0  0  0  0
  1 24  1  0  0  0  0
  2  3  1  0  0  0  0
  3  8  1  0  0  0  0
  3  4  2  0  0  0  0
  4  5  1  0  0  0  0
  5  6  2  0  0  0  0
  5 25  1  0  0  0  0
  6  7  1  0  0  0  0
  6 26  1  0  0  0  0
  7  8  2  0  0  0  0
  7 27  1  0  0  0  0
  8  9  1  0  0  0  0
  9 10  1  0  0  0  0
  9 28  1  0  0  0  0
 10 11  2  0  0  0  0
 10 12  1  0  0  0  0
 12 13  1  0  0  0  0
 12 29  1  0  0  0  0
 13 14  1  0  0  0  0
 13 30  1  0  0  0  0
 13 31  1  0  0  0  0
 14 15  1  0  0  0  0
 14 32  1  0  0  0  0
 14 33  1  0  0  0  0
 15 21  1  0  0  0  0
 15 16  1  0  0  0  0
 15 46  1  0  0  0  0
 16 17  1  0  0  0  0
 16 34  1  0  0  0  0
 16 35  1  0  0  0  0
 17 18  1  0  0  0  0
 17 36  1  0  0  0  0
 17 37  1  0  0  0  0
 18 19  1  0  0  0  0
 18 38  1  0  0  0  0
 18 39  1  0  0  0  0
 19 20  1  0  0  0  0
 19 21  1  0  0  0  0
 19 40  1  0  0  0  0
 20 41  1  0  0  0  0
 20 42  1  0  0  0  0
 20 43  1  0  0  0  0
 21 44  1  0  0  0  0
 21 45  1  0  0  0  0
M  CHG  1  15   1
M  END
> <s_m_source_file>
AV-unprocessed.smi

> <i_m_source_file_index>
1445

> <i_lp_mmshare_version>
43012

> <i_f3d_flags>
0

> <s_epik_input>
W0NIM11PYzFuW2NIXVtjSF1bY0hdYzFbTkhdQyg9TylbTkhdW0NIMl1bQ0gyXU4yW0NIMl1bQ0gyXVtDSDJdW0NAQEhdKFtDSDNdKVtDSDJdMg==

> <s_epik_cmdline>
J2VwaWtfcHl0aG9uJywgJy1waCcsICc3LjAnLCAnLXRuJywgJzgnLCAnLW1hJywgJzIwMCcsICctbWV0YWxfYmluZGluZycsICctaW1hZScsICc8aW5maWxlLm1hZT4nLCAnLW9tYWUnLCAnPG91dGZpbGUubWFlPic=

> <r_lp_tautomer_probability>
1

> <r_epik_Ionization_Penalty>
0.00179544

> <r_epik_Ionization_Penalty_Charging>
0.00171832

> <r_epik_Ionization_Penalty_Neutral>
7.71118e-05

> <r_epik_State_Penalty>
0.0011618

> <r_epik_Charging_Adjusted_Penalty>
0.00288012

> <i_epik_Tot_Q>
1

> <i_epik_Tot_abs_Q>
1

> <r_epik_Metal_State_Penalty>
-0

> <b_epik_Metal_Only>
0

> <s_lp_Force_Field>
OPLS_2005

> <r_lp_Energy>
21.8859

> <b_lp_Chiralities_Consistent>
1

> <s_lp_Variant>
AV-unprocessed.smi:1445-3

> <Gold.Version>
5.8.1

> <Gold.Id.Protein>
6NUR|6NUR_protein|mol2

> <Gold.PLP.Fitness>
51.5569

> <Gold.PLP.PLP>
-39.1177

> <Gold.PLP.part.hbond>
-4.0000

> <Gold.PLP.part.metal>
0.0000

> <Gold.PLP.part.buried>
-1.1349

> <Gold.PLP.part.nonpolar>
-35.9740

> <Gold.PLP.part.repulsive>
0.6549

> <Gold.PLP.ligand.clash>
0.0000

> <Gold.PLP.ligand.torsion>
0.6685

> <Gold.PLP.Chemscore.Hbond>
3.8552

> <Gold.PLP.Chemscore.CHOScore>
0.7216

> <Gold.PLP.Chemscore.Metal>
0.0000

> <Gold.Chemscore.Hbonds>
donor molecule, donor type, donor heavy atom, donor atom, acceptor molecule, acceptor atom, score
      L1  H     9    28       P1  7948  0.94
      L1  H    12    29       P1  7948  1.00
      L1  H    15    46       P1  7921  0.79
      P1  H  7989  7998       L1     4  0.85
      L1  C     5    25       P1  8028  0.50

> <Gold.PLP.Chemscore.Internal.Correction>
0.0457

> <Gold.Rescore>
     Score         DG    S(hbond)    S(metal)    S(lipo)     H(rot)  DE(clash)    DE(int)     intcor
     21.91     -23.88       3.02        0.00     108.43       1.71       0.27       1.71       ----

> <Gold.Chemscore.Fitness>
21.9075

> <Gold.Chemscore.DG>
-23.8845

> <Gold.Chemscore.ZeroCoef>
-5.4800

> <Gold.Chemscore.Hbond>
3.0231

> <Gold.Chemscore.Metal>
0.0000

> <Gold.Chemscore.Lipo>
108.4331

> <Gold.Chemscore.Internal_Hbond>
0.0000

> <Gold.Chemscore.DEClash>
0.2665

> <Gold.Chemscore.DEInternal>
1.7105

> <Gold.Chemscore.Rot>
1.7107

> <Gold.Chemscore.Internal.Correction>
   9.000000E+99

> <Gold.Chemscore.Hbonds>
donor molecule, donor type, donor heavy atom, donor atom, acceptor molecule, acceptor atom, score
      L1  H     9    28       P1  7948  0.91
      L1  H    12    29       P1  7948  0.98
      L1  H    15    46       P1  7921  0.74
      P1  H  7989  7998       L1     4  0.11

> <Gold.Chemscore.Hbond.Weighted>
-10.0973

> <Gold.Chemscore.Metal.Weighted>
-0.0000

> <Gold.Chemscore.Lipo.Weighted>
-12.6867

> <Gold.Chemscore.Internal_Hbond.Weighted>
0.0000

> <Gold.Chemscore.DEClash.Weighted>
0.2665

> <Gold.Chemscore.DEInternal.Weighted>
1.7105

> <Gold.Chemscore.Rot.Weighted>
4.3794

> <Gold.Chemscore.Internal.Correction.Weighted>
   9.000000E+99

> <Gold.Protein.RotatedTorsions>
[ 6907 6896 6895 6894 ] final -165.11 input  -60.11 | X-H torsion
[ 7974 7965 7964 7962 ] final   67.61 input  175.53 | X-H torsion
[ 8008 7997 7996 7995 ] final  -12.90 input   59.86 | X-H torsion
[ 10167 10162 10161 10158 ] final  -41.18 input  -65.29 | X-H torsion
[ 10718 10713 10712 10709 ] final   98.32 input   66.30 | X-H torsion
[ 10763 10752 10751 10750 ] final -152.59 input  -60.55 | X-H torsion
[ 11005 11000 10999 10996 ] final   91.32 input  -57.11 | X-H torsion

> <Gold.Protein.ActiveResidues>
 VAL166  LYS551  ARG553  GLY616  TRP617  ASP618  TYR619  PRO620  LYS621  CYS622 
 ASP623  PHE694  ASN695  SER759  ASP760  ASP761  ALA762  ILE779  LEU786  VAL792 
 PHE793  MET794  SER795  GLU796  ALA797  LYS798  CYS799  TRP800  GLU811  SER814 

> <Gold.Protein.RotatedAtoms>
  151.4225  133.3694  159.2757 H   0  0  0  0  0  0  0  0  0  0  0  0  # atno 6907 bound_to 6896
  150.9283  134.8700  159.7545 H   0  0  0  0  0  0  0  0  0  0  0  0  # atno 6908 bound_to 6896
  152.5016  134.4168  159.9519 H   0  0  0  0  0  0  0  0  0  0  0  0  # atno 6909 bound_to 6896
  145.8126  139.3041  143.1090 H   0  0  0  0  0  0  0  0  0  0  0  0  # atno 7974 bound_to 7965
  154.5337  140.2264  155.8759 H   0  0  0  0  0  0  0  0  0  0  0  0  # atno 8008 bound_to 7997
  156.1790  140.3104  155.9076 H   0  0  0  0  0  0  0  0  0  0  0  0  # atno 8009 bound_to 7997
  155.3398  140.0450  157.3035 H   0  0  0  0  0  0  0  0  0  0  0  0  # atno 8010 bound_to 7997
  140.7011  143.3110  151.3030 H   0  0  0  0  0  0  0  0  0  0  0  0  # atno 10167 bound_to 10162
  157.6897  131.0636  150.4779 H   0  0  0  0  0  0  0  0  0  0  0  0  # atno 10718 bound_to 10713
  154.7984  135.3232  154.7611 H   0  0  0  0  0  0  0  0  0  0  0  0  # atno 10763 bound_to 10752
  153.8285  135.6881  153.4822 H   0  0  0  0  0  0  0  0  0  0  0  0  # atno 10764 bound_to 10752
  153.1687  135.4632  154.9815 H   0  0  0  0  0  0  0  0  0  0  0  0  # atno 10765 bound_to 10752
  139.8841  134.8667  156.3412 H   0  0  0  0  0  0  0  0  0  0  0  0  # atno 11005 bound_to 11000
  145.9761  140.8721  143.0138 LP  0  0  0  0  0  0  0  0  0  0  0  0  # atno 17320 bound_to 7965
  144.6756  140.2014  143.7386 LP  0  0  0  0  0  0  0  0  0  0  0  0  # atno 17321 bound_to 7965
  139.6532  144.0324  152.2641 LP  0  0  0  0  0  0  0  0  0  0  0  0  # atno 17342 bound_to 10162
  139.9867  144.6390  150.7851 LP  0  0  0  0  0  0  0  0  0  0  0  0  # atno 17343 bound_to 10162
  156.5112  130.4140  149.6300 LP  0  0  0  0  0  0  0  0  0  0  0  0  # atno 17370 bound_to 10713
  156.3238  130.7295  151.2212 LP  0  0  0  0  0  0  0  0  0  0  0  0  # atno 17371 bound_to 10713
  140.9657  133.7359  156.0464 LP  0  0  0  0  0  0  0  0  0  0  0  0  # atno 17394 bound_to 11000
  140.7933  134.3592  157.5459 LP  0  0  0  0  0  0  0  0  0  0  0  0  # atno 17395 bound_to 11000

$$$$
