AV-unprocessed.smi:501|AV-procd|sdf|2743|dock8
  -GOLD-   2262023203D 1   1.00000     0.00000
 Structure written by MMmdl.
 46 48  0  0  0  0  0  0  0  0  2 V2000
  147.6101  136.3350  162.4884 C   0  0  0  0  0  0  0  0  0  0  0  0
  147.9783  136.0341  161.0499 C   0  0  0  0  0  0  0  0  0  0  0  0
  147.5051  134.8645  160.4223 C   0  0  0  0  0  0  0  0  0  0  0  0
  147.8544  134.5938  159.0867 C   0  0  0  0  0  0  0  0  0  0  0  0
  148.6753  135.4907  158.3772 C   0  0  0  0  0  0  0  0  0  0  0  0
  149.1566  136.6664  158.9888 C   0  0  0  0  0  0  0  0  0  0  0  0
  149.9544  137.4890  158.2223 O   0  0  0  0  0  0  0  0  0  0  0  0
  149.9510  138.8788  158.5117 C   0  0  0  0  0  0  0  0  0  0  0  0
  151.2355  139.5075  157.9625 C   0  0  0  0  0  0  0  0  0  0  0  0
  151.0150  140.8971  157.5383 N   0  0  0  0  0  0  0  0  0  0  0  0
  150.2831  141.4040  156.5028 C   0  0  0  0  0  0  0  0  0  0  0  0
  149.4754  140.6335  155.5019 C   0  0  0  0  0  0  0  0  0  0  0  0
  148.8477  141.5234  154.4096 C   0  0  0  0  0  0  0  0  0  0  0  0
  148.2415  140.7573  153.3234 N   0  0  0  0  0  0  0  0  0  0  0  0
  147.1074  140.0493  153.4235 C   0  0  0  0  0  0  0  0  0  0  0  0
  146.4493  139.9346  154.4560 O   0  0  0  0  0  0  0  0  0  0  0  0
  150.3995  142.7619  156.5579 N   0  3  0  0  0  0  0  0  0  0  0  0
  151.2367  143.1243  157.6132 C   0  0  0  0  0  0  0  0  0  0  0  0
  151.6623  144.3747  158.0509 C   0  0  0  0  0  0  0  0  0  0  0  0
  152.5273  144.3947  159.1647 C   0  0  0  0  0  0  0  0  0  0  0  0
  152.9368  143.2030  159.7976 C   0  0  0  0  0  0  0  0  0  0  0  0
  152.4975  141.9412  159.3454 C   0  0  0  0  0  0  0  0  0  0  0  0
  151.6401  141.9306  158.2453 C   0  0  0  0  0  0  0  0  0  0  0  0
  148.7994  136.9308  160.3360 C   0  0  0  0  0  0  0  0  0  0  0  0
  146.9830  135.5502  162.9127 H   0  0  0  0  0  0  0  0  0  0  0  0
  147.0642  137.2767  162.5492 H   0  0  0  0  0  0  0  0  0  0  0  0
  148.5095  136.4188  163.0988 H   0  0  0  0  0  0  0  0  0  0  0  0
  146.8750  134.1719  160.9610 H   0  0  0  0  0  0  0  0  0  0  0  0
  147.4931  133.6970  158.6054 H   0  0  0  0  0  0  0  0  0  0  0  0
  148.9390  135.2736  157.3525 H   0  0  0  0  0  0  0  0  0  0  0  0
  149.0791  139.3550  158.0601 H   0  0  0  0  0  0  0  0  0  0  0  0
  149.9062  139.0368  159.5888 H   0  0  0  0  0  0  0  0  0  0  0  0
  152.0151  139.5061  158.7243 H   0  0  0  0  0  0  0  0  0  0  0  0
  151.6295  138.9327  157.1241 H   0  0  0  0  0  0  0  0  0  0  0  0
  150.1027  139.8762  155.0324 H   0  0  0  0  0  0  0  0  0  0  0  0
  148.6911  140.0928  156.0318 H   0  0  0  0  0  0  0  0  0  0  0  0
  148.1068  142.1919  154.8510 H   0  0  0  0  0  0  0  0  0  0  0  0
  149.6140  142.1652  153.9739 H   0  0  0  0  0  0  0  0  0  0  0  0
  148.7025  140.7892  152.4254 H   0  0  0  0  0  0  0  0  0  0  0  0
  146.8479  139.5836  152.4603 H   0  0  0  0  0  0  0  0  0  0  0  0
  151.3514  145.2886  157.5660 H   0  0  0  0  0  0  0  0  0  0  0  0
  152.8854  145.3423  159.5406 H   0  0  0  0  0  0  0  0  0  0  0  0
  153.6018  143.2570  160.6476 H   0  0  0  0  0  0  0  0  0  0  0  0
  152.8202  141.0350  159.8365 H   0  0  0  0  0  0  0  0  0  0  0  0
  149.1446  137.8176  160.8452 H   0  0  0  0  0  0  0  0  0  0  0  0
  149.9426  143.3932  155.9125 H   0  0  0  0  0  0  0  0  0  0  0  0
  1  2  1  0  0  0  0
  1 25  1  0  0  0  0
  1 26  1  0  0  0  0
  1 27  1  0  0  0  0
  2 24  1  0  0  0  0
  2  3  2  0  0  0  0
  3  4  1  0  0  0  0
  3 28  1  0  0  0  0
  4  5  2  0  0  0  0
  4 29  1  0  0  0  0
  5  6  1  0  0  0  0
  5 30  1  0  0  0  0
  6  7  1  0  0  0  0
  6 24  2  0  0  0  0
  7  8  1  0  0  0  0
  8  9  1  0  0  0  0
  8 31  1  0  0  0  0
  8 32  1  0  0  0  0
  9 10  1  0  0  0  0
  9 33  1  0  0  0  0
  9 34  1  0  0  0  0
 10 23  1  0  0  0  0
 10 11  1  0  0  0  0
 11 12  1  0  0  0  0
 11 17  2  0  0  0  0
 12 13  1  0  0  0  0
 12 35  1  0  0  0  0
 12 36  1  0  0  0  0
 13 14  1  0  0  0  0
 13 37  1  0  0  0  0
 13 38  1  0  0  0  0
 14 15  1  0  0  0  0
 14 39  1  0  0  0  0
 15 16  2  0  0  0  0
 15 40  1  0  0  0  0
 17 18  1  0  0  0  0
 17 46  1  0  0  0  0
 18 23  2  0  0  0  0
 18 19  1  0  0  0  0
 19 20  2  0  0  0  0
 19 41  1  0  0  0  0
 20 21  1  0  0  0  0
 20 42  1  0  0  0  0
 21 22  2  0  0  0  0
 21 43  1  0  0  0  0
 22 23  1  0  0  0  0
 22 44  1  0  0  0  0
 24 45  1  0  0  0  0
M  CHG  1  17   1
M  END
> <s_m_source_file>
AV-unprocessed.smi

> <i_m_source_file_index>
501

> <i_lp_mmshare_version>
43012

> <i_f3d_flags>
0

> <s_epik_input>
W0NIM11jMVtjSF1bY0hdW2NIXWMoW2NIXTEpT1tDSDJdW0NIMl1uKGMobjIpW0NIMl1bQ0gyXVtOSF1bQ0hdPU8pYyhjMjMpW2NIXVtjSF1bY0hdW2NIXTM=

> <s_epik_cmdline>
J2VwaWtfcHl0aG9uJywgJy1waCcsICc3LjAnLCAnLXRuJywgJzgnLCAnLW1hJywgJzIwMCcsICctbWV0YWxfYmluZGluZycsICctaW1hZScsICc8aW5maWxlLm1hZT4nLCAnLW9tYWUnLCAnPG91dGZpbGUubWFlPic=

> <r_lp_tautomer_probability>
1

> <r_epik_Ionization_Penalty>
1.14747

> <r_epik_Ionization_Penalty_Charging>
1.14747

> <r_epik_Ionization_Penalty_Neutral>
1.55554e-08

> <r_epik_State_Penalty>
1.20856

> <r_epik_Charging_Adjusted_Penalty>
2.35603

> <i_epik_Tot_Q>
1

> <i_epik_Tot_abs_Q>
1

> <r_epik_Metal_State_Penalty>
1.28951

> <b_epik_Metal_Only>
0

> <s_lp_Force_Field>
OPLS_2005

> <r_lp_Energy>
21.7567

> <b_lp_Chiralities_Consistent>
1

> <s_lp_Variant>
AV-unprocessed.smi:501-2

> <Gold.Version>
5.8.1

> <Gold.Id.Protein>
6NUR|6NUR_protein|mol2

> <Gold.PLP.Fitness>
56.9137

> <Gold.PLP.PLP>
-49.3601

> <Gold.PLP.part.hbond>
-2.0000

> <Gold.PLP.part.metal>
0.0000

> <Gold.PLP.part.buried>
-4.6274

> <Gold.PLP.part.nonpolar>
-43.8213

> <Gold.PLP.part.repulsive>
0.3257

> <Gold.PLP.ligand.clash>
0.0000

> <Gold.PLP.ligand.torsion>
0.8411

> <Gold.PLP.Chemscore.Hbond>
3.0000

> <Gold.PLP.Chemscore.CHOScore>
0.0000

> <Gold.PLP.Chemscore.Metal>
0.0000

> <Gold.Chemscore.Hbonds>
donor molecule, donor type, donor heavy atom, donor atom, acceptor molecule, acceptor atom, score
      L1  H    14    39       P1  7957  1.00
      L1  H    17    46       P1  8028  1.95

> <Gold.PLP.Chemscore.Internal.Correction>
0.2357

> <Gold.Rescore>
     Score         DG    S(hbond)    S(metal)    S(lipo)     H(rot)  DE(clash)    DE(int)     intcor
     18.88     -19.69       1.98        0.00     123.57       2.68       0.01       0.80       ----

> <Gold.Chemscore.Fitness>
18.8807

> <Gold.Chemscore.DG>
-19.6860

> <Gold.Chemscore.ZeroCoef>
-5.4800

> <Gold.Chemscore.Hbond>
1.9822

> <Gold.Chemscore.Metal>
0.0000

> <Gold.Chemscore.Lipo>
123.5670

> <Gold.Chemscore.Internal_Hbond>
0.0000

> <Gold.Chemscore.DEClash>
0.0060

> <Gold.Chemscore.DEInternal>
0.7993

> <Gold.Chemscore.Rot>
2.6843

> <Gold.Chemscore.Internal.Correction>
   9.000000E+99

> <Gold.Chemscore.Hbonds>
donor molecule, donor type, donor heavy atom, donor atom, acceptor molecule, acceptor atom, score
      L1  H    14    39       P1  7957  0.96
      L1  H    17    46       P1  8028  0.93

> <Gold.Chemscore.Hbond.Weighted>
-6.6204

> <Gold.Chemscore.Metal.Weighted>
-0.0000

> <Gold.Chemscore.Lipo.Weighted>
-14.4573

> <Gold.Chemscore.Internal_Hbond.Weighted>
0.0000

> <Gold.Chemscore.DEClash.Weighted>
0.0060

> <Gold.Chemscore.DEInternal.Weighted>
0.7993

> <Gold.Chemscore.Rot.Weighted>
6.8718

> <Gold.Chemscore.Internal.Correction.Weighted>
   9.000000E+99

> <Gold.Protein.RotatedTorsions>
[ 6907 6896 6895 6894 ] final   70.77 input  -60.11 | X-H torsion
[ 7974 7965 7964 7962 ] final  -36.25 input  175.53 | X-H torsion
[ 8008 7997 7996 7995 ] final  155.36 input   59.86 | X-H torsion
[ 10167 10162 10161 10158 ] final  -29.99 input  -65.29 | X-H torsion
[ 10718 10713 10712 10709 ] final   80.19 input   66.30 | X-H torsion
[ 10763 10752 10751 10750 ] final -166.69 input  -60.55 | X-H torsion
[ 11005 11000 10999 10996 ] final -179.48 input  -57.11 | X-H torsion

> <Gold.Protein.ActiveResidues>
 VAL166  LYS551  ARG553  GLY616  TRP617  ASP618  TYR619  PRO620  LYS621  CYS622 
 ASP623  PHE694  ASN695  SER759  ASP760  ASP761  ALA762  ILE779  LEU786  VAL792 
 PHE793  MET794  SER795  GLU796  ALA797  LYS798  CYS799  TRP800  GLU811  SER814 

> <Gold.Protein.RotatedAtoms>
  152.4770  134.4819  159.9667 H   0  0  0  0  0  0  0  0  0  0  0  0  # atno 6907 bound_to 6896
  151.4833  133.3535  159.2849 H   0  0  0  0  0  0  0  0  0  0  0  0  # atno 6908 bound_to 6896
  150.8815  134.8233  159.7289 H   0  0  0  0  0  0  0  0  0  0  0  0  # atno 6909 bound_to 6896
  146.0677  140.6256  142.8967 H   0  0  0  0  0  0  0  0  0  0  0  0  # atno 7974 bound_to 7965
  156.2482  140.1941  156.6790 H   0  0  0  0  0  0  0  0  0  0  0  0  # atno 8008 bound_to 7997
  154.6336  140.0592  156.9788 H   0  0  0  0  0  0  0  0  0  0  0  0  # atno 8009 bound_to 7997
  155.1672  140.3265  155.4402 H   0  0  0  0  0  0  0  0  0  0  0  0  # atno 8010 bound_to 7997
  140.7254  143.3884  151.1474 H   0  0  0  0  0  0  0  0  0  0  0  0  # atno 10167 bound_to 10162
  157.6799  130.9948  150.2043 H   0  0  0  0  0  0  0  0  0  0  0  0  # atno 10718 bound_to 10713
  154.6807  135.2954  154.9617 H   0  0  0  0  0  0  0  0  0  0  0  0  # atno 10763 bound_to 10752
  154.0612  135.6631  153.4816 H   0  0  0  0  0  0  0  0  0  0  0  0  # atno 10764 bound_to 10752
  153.0545  135.5153  154.7849 H   0  0  0  0  0  0  0  0  0  0  0  0  # atno 10765 bound_to 10752
  140.4182  134.6630  157.4650 H   0  0  0  0  0  0  0  0  0  0  0  0  # atno 11005 bound_to 11000
  144.7213  140.4381  143.7006 LP  0  0  0  0  0  0  0  0  0  0  0  0  # atno 17320 bound_to 7965
  145.6447  139.1555  143.2896 LP  0  0  0  0  0  0  0  0  0  0  0  0  # atno 17321 bound_to 7965
  139.7485  143.8815  152.3070 LP  0  0  0  0  0  0  0  0  0  0  0  0  # atno 17342 bound_to 10162
  139.8661  144.7092  150.9043 LP  0  0  0  0  0  0  0  0  0  0  0  0  # atno 17343 bound_to 10162
  156.2727  130.3724  149.8015 LP  0  0  0  0  0  0  0  0  0  0  0  0  # atno 17370 bound_to 10713
  156.5727  130.8431  151.3361 LP  0  0  0  0  0  0  0  0  0  0  0  0  # atno 17371 bound_to 10713
  140.0219  134.6535  155.9228 LP  0  0  0  0  0  0  0  0  0  0  0  0  # atno 17394 bound_to 11000
  141.1794  133.6544  156.4960 LP  0  0  0  0  0  0  0  0  0  0  0  0  # atno 17395 bound_to 11000

$$$$
