AV-unprocessed.smi:1410|AV-procd|sdf|5735|dock4
  -GOLD-   22720 5363D 1   1.00000     0.00000
 Structure written by MMmdl.
 39 40  0  0  0  0  0  0  0  0  3 V2000
  143.7473  137.8678  152.2920 N   0  5  0  0  0  0  0  0  0  0  0  0
  144.8662  137.6147  152.9972 C   0  0  0  0  0  0  0  0  0  0  0  0
  144.9644  137.0288  154.0735 O   0  0  0  0  0  0  0  0  0  0  0  0
  146.1228  138.1785  152.3249 C   0  0  0  0  0  0  0  0  0  0  0  0
  146.7676  139.1842  153.2054 N   0  3  2  0  0  0  0  0  0  0  0  0
  147.0598  140.4679  152.5122 C   0  0  0  0  0  0  0  0  0  0  0  0
  147.5957  141.5189  153.4975 C   0  0  0  0  0  0  0  0  0  0  0  0
  148.8476  141.0068  154.2264 C   0  0  1  0  0  0  0  0  0  0  0  0
  149.2858  141.9938  155.2086 N   0  0  0  0  0  0  0  0  0  0  0  0
  150.1623  141.7635  156.1967 C   0  0  0  0  0  0  0  0  0  0  0  0
  150.6811  140.6660  156.4000 O   0  0  0  0  0  0  0  0  0  0  0  0
  150.3713  142.8723  156.9277 N   0  0  0  0  0  0  0  0  0  0  0  0
  151.2511  143.0575  158.0285 C   0  0  0  0  0  0  0  0  0  0  0  0
  151.7942  141.9066  158.6361 C   0  0  0  0  0  0  0  0  0  0  0  0
  152.6547  142.0637  159.7408 C   0  0  0  0  0  0  0  0  0  0  0  0
  152.9825  143.2654  160.2607 N   0  0  0  0  0  0  0  0  0  0  0  0
  152.4497  144.3652  159.6872 C   0  0  0  0  0  0  0  0  0  0  0  0
  151.5801  144.3194  158.5790 C   0  0  0  0  0  0  0  0  0  0  0  0
  148.5355  139.6588  154.9015 C   0  0  0  0  0  0  0  0  0  0  0  0
  147.9716  138.6473  153.8891 C   0  0  0  0  0  0  0  0  0  0  0  0
  143.5468  138.8369  152.0164 H   0  0  0  0  0  0  0  0  0  0  0  0
  146.7980  137.3371  152.1637 H   0  0  0  0  0  0  0  0  0  0  0  0
  145.9208  138.6065  151.3404 H   0  0  0  0  0  0  0  0  0  0  0  0
  147.7850  140.2954  151.7152 H   0  0  0  0  0  0  0  0  0  0  0  0
  146.1585  140.8564  152.0375 H   0  0  0  0  0  0  0  0  0  0  0  0
  147.8243  142.4413  152.9625 H   0  0  0  0  0  0  0  0  0  0  0  0
  146.8167  141.7656  154.2208 H   0  0  0  0  0  0  0  0  0  0  0  0
  149.6374  140.8608  153.4867 H   0  0  0  0  0  0  0  0  0  0  0  0
  148.9031  142.9240  155.1211 H   0  0  0  0  0  0  0  0  0  0  0  0
  149.8027  143.6727  156.6929 H   0  0  0  0  0  0  0  0  0  0  0  0
  151.5634  140.9193  158.2635 H   0  0  0  0  0  0  0  0  0  0  0  0
  153.0888  141.1994  160.2212 H   0  0  0  0  0  0  0  0  0  0  0  0
  152.7188  145.3130  160.1293 H   0  0  0  0  0  0  0  0  0  0  0  0
  151.1786  145.2416  158.1884 H   0  0  0  0  0  0  0  0  0  0  0  0
  149.4354  139.2507  155.3634 H   0  0  0  0  0  0  0  0  0  0  0  0
  147.8137  139.8046  155.7067 H   0  0  0  0  0  0  0  0  0  0  0  0
  147.7186  137.7240  154.4116 H   0  0  0  0  0  0  0  0  0  0  0  0
  148.7302  138.3942  153.1465 H   0  0  0  0  0  0  0  0  0  0  0  0
  146.0933  139.3867  153.9296 H   0  0  0  0  0  0  0  0  0  0  0  0
  1  2  1  0  0  0  0
  1 21  1  0  0  0  0
  2  3  2  0  0  0  0
  2  4  1  0  0  0  0
  4  5  1  0  0  0  0
  4 22  1  0  0  0  0
  4 23  1  0  0  0  0
  5 20  1  0  0  0  0
  5  6  1  0  0  0  0
  5 39  1  0  0  0  0
  6  7  1  0  0  0  0
  6 24  1  0  0  0  0
  6 25  1  0  0  0  0
  7  8  1  0  0  0  0
  7 26  1  0  0  0  0
  7 27  1  0  0  0  0
  8  9  1  0  0  0  0
  8 19  1  0  0  0  0
  8 28  1  0  0  0  0
  9 10  1  0  0  0  0
  9 29  1  0  0  0  0
 10 11  2  0  0  0  0
 10 12  1  0  0  0  0
 12 13  1  0  0  0  0
 12 30  1  0  0  0  0
 13 18  1  0  0  0  0
 13 14  2  0  0  0  0
 14 15  1  0  0  0  0
 14 31  1  0  0  0  0
 15 16  2  0  0  0  0
 15 32  1  0  0  0  0
 16 17  1  0  0  0  0
 17 18  2  0  0  0  0
 17 33  1  0  0  0  0
 18 34  1  0  0  0  0
 19 20  1  0  0  0  0
 19 35  1  0  0  0  0
 19 36  1  0  0  0  0
 20 37  1  0  0  0  0
 20 38  1  0  0  0  0
M  CHG  1   1  -1
M  CHG  1   5   1
M  END
> <s_m_source_file>
AV-unprocessed.smi

> <i_m_source_file_index>
1410

> <i_lp_mmshare_version>
43012

> <i_f3d_flags>
0

> <s_epik_input>
W05IMl1DKD1PKVtDSDJdTjFbQ0gyXVtDSDJdW0NIXShbQ0gyXVtDSDJdMSlbTkhdQyg9TylbTkhdYzJbY0hdW2NIXW5bY0hdW2NIXTI=

> <s_epik_cmdline>
J2VwaWtfcHl0aG9uJywgJy1waCcsICc3LjAnLCAnLXRuJywgJzgnLCAnLW1hJywgJzIwMCcsICctbWV0YWxfYmluZGluZycsICctaW1hZScsICc8aW5maWxlLm1hZT4nLCAnLW9tYWUnLCAnPG91dGZpbGUubWFlPic=

> <r_epik_Ionization_Penalty>
5.8279

> <r_epik_Ionization_Penalty_Charging>
5.7288

> <r_epik_Ionization_Penalty_Neutral>
0.0990993

> <r_epik_State_Penalty>
6.63321

> <r_epik_Charging_Adjusted_Penalty>
12.362

> <i_epik_Tot_Q>
0

> <i_epik_Tot_abs_Q>
2

> <r_epik_Metal_State_Penalty>
2.69435

> <b_epik_Metal_Only>
1

> <s_lp_Force_Field>
OPLS_2005

> <r_lp_Energy>
12.3591

> <b_lp_Chiralities_Consistent>
1

> <s_lp_Variant>
AV-unprocessed.smi:1410-7

> <Gold.Version>
5.8.1

> <Gold.Id.Protein>
6NUR|6NUR_protein|mol2

> <Gold.PLP.Fitness>
45.4866

> <Gold.PLP.PLP>
-38.2757

> <Gold.PLP.part.hbond>
-4.0000

> <Gold.PLP.part.metal>
0.0000

> <Gold.PLP.part.buried>
-4.3877

> <Gold.PLP.part.nonpolar>
-30.4565

> <Gold.PLP.part.repulsive>
0.3377

> <Gold.PLP.ligand.clash>
0.0000

> <Gold.PLP.ligand.torsion>
0.8934

> <Gold.PLP.Chemscore.Hbond>
2.9920

> <Gold.PLP.Chemscore.CHOScore>
0.0000

> <Gold.PLP.Chemscore.Metal>
0.0000

> <Gold.Chemscore.Hbonds>
donor molecule, donor type, donor heavy atom, donor atom, acceptor molecule, acceptor atom, score
      L1  H     1    21       P1 10175  0.94
      L1  H     9    29       P1  8028  1.00
      L1  H    12    30       P1  8028  1.00

> <Gold.PLP.Chemscore.Internal.Correction>
0.0217

> <Gold.Rescore>
     Score         DG    S(hbond)    S(metal)    S(lipo)     H(rot)  DE(clash)    DE(int)     intcor
     18.04     -21.95       2.94        0.00      99.14       1.94       0.33       3.57       ----

> <Gold.Chemscore.Fitness>
18.0405

> <Gold.Chemscore.DG>
-21.9503

> <Gold.Chemscore.ZeroCoef>
-5.4800

> <Gold.Chemscore.Hbond>
2.9424

> <Gold.Chemscore.Metal>
0.0000

> <Gold.Chemscore.Lipo>
99.1364

> <Gold.Chemscore.Internal_Hbond>
0.0000

> <Gold.Chemscore.DEClash>
0.3349

> <Gold.Chemscore.DEInternal>
3.5748

> <Gold.Chemscore.Rot>
1.9361

> <Gold.Chemscore.Internal.Correction>
   9.000000E+99

> <Gold.Chemscore.Hbonds>
donor molecule, donor type, donor heavy atom, donor atom, acceptor molecule, acceptor atom, score
      L1  H     1    21       P1 10175  0.91
      L1  H     9    29       P1  8028  0.95
      L1  H    12    30       P1  8028  0.99

> <Gold.Chemscore.Hbond.Weighted>
-9.8277

> <Gold.Chemscore.Metal.Weighted>
-0.0000

> <Gold.Chemscore.Lipo.Weighted>
-11.5990

> <Gold.Chemscore.Internal_Hbond.Weighted>
0.0000

> <Gold.Chemscore.DEClash.Weighted>
0.3349

> <Gold.Chemscore.DEInternal.Weighted>
3.5748

> <Gold.Chemscore.Rot.Weighted>
4.9563

> <Gold.Chemscore.Internal.Correction.Weighted>
   9.000000E+99

> <Gold.Protein.RotatedTorsions>
[ 6907 6896 6895 6894 ] final -171.39 input  -60.11 | X-H torsion
[ 7974 7965 7964 7962 ] final -156.71 input  175.53 | X-H torsion
[ 8008 7997 7996 7995 ] final  -72.27 input   59.86 | X-H torsion
[ 10167 10162 10161 10158 ] final  142.04 input  -65.29 | X-H torsion
[ 10718 10713 10712 10709 ] final  106.42 input   66.30 | X-H torsion
[ 10763 10752 10751 10750 ] final   41.70 input  -60.55 | X-H torsion
[ 11005 11000 10999 10996 ] final  -36.61 input  -57.11 | X-H torsion

> <Gold.Protein.ActiveResidues>
 VAL166  LYS551  ARG553  GLY616  TRP617  ASP618  TYR619  PRO620  LYS621  CYS622 
 ASP623  PHE694  ASN695  SER759  ASP760  ASP761  ALA762  ILE779  LEU786  VAL792 
 PHE793  MET794  SER795  GLU796  ALA797  LYS798  CYS799  TRP800  GLU811  SER814 

> <Gold.Protein.RotatedAtoms>
  151.5230  133.3463  159.2904 H   0  0  0  0  0  0  0  0  0  0  0  0  # atno 6907 bound_to 6896
  150.8640  134.8002  159.7116 H   0  0  0  0  0  0  0  0  0  0  0  0  # atno 6908 bound_to 6896
  152.4651  134.5104  159.9803 H   0  0  0  0  0  0  0  0  0  0  0  0  # atno 6909 bound_to 6896
  144.7580  140.4071  143.5997 H   0  0  0  0  0  0  0  0  0  0  0  0  # atno 7974 bound_to 7965
  154.5153  140.0800  156.8068 H   0  0  0  0  0  0  0  0  0  0  0  0  # atno 8008 bound_to 7997
  155.3695  140.3422  155.4224 H   0  0  0  0  0  0  0  0  0  0  0  0  # atno 8009 bound_to 7997
  156.1620  140.1591  156.8583 H   0  0  0  0  0  0  0  0  0  0  0  0  # atno 8010 bound_to 7997
  139.5004  144.6133  151.6222 H   0  0  0  0  0  0  0  0  0  0  0  0  # atno 10167 bound_to 10162
  157.6669  131.0850  150.6004 H   0  0  0  0  0  0  0  0  0  0  0  0  # atno 10718 bound_to 10713
  152.9901  135.6154  154.2830 H   0  0  0  0  0  0  0  0  0  0  0  0  # atno 10763 bound_to 10752
  154.2559  135.2784  155.2799 H   0  0  0  0  0  0  0  0  0  0  0  0  # atno 10764 bound_to 10752
  154.5248  135.5804  153.6767 H   0  0  0  0  0  0  0  0  0  0  0  0  # atno 10765 bound_to 10752
  140.9888  133.7016  156.1813 H   0  0  0  0  0  0  0  0  0  0  0  0  # atno 11005 bound_to 11000
  145.6712  139.1599  143.2753 LP  0  0  0  0  0  0  0  0  0  0  0  0  # atno 17320 bound_to 7965
  146.1613  140.6783  142.9276 LP  0  0  0  0  0  0  0  0  0  0  0  0  # atno 17321 bound_to 7965
  140.5813  143.9940  150.6270 LP  0  0  0  0  0  0  0  0  0  0  0  0  # atno 17342 bound_to 10162
  140.3090  143.3210  152.0897 LP  0  0  0  0  0  0  0  0  0  0  0  0  # atno 17343 bound_to 10162
  156.6305  130.4430  149.5788 LP  0  0  0  0  0  0  0  0  0  0  0  0  # atno 17370 bound_to 10713
  156.2286  130.6780  151.1440 LP  0  0  0  0  0  0  0  0  0  0  0  0  # atno 17371 bound_to 10713
  140.7072  134.4500  157.5583 LP  0  0  0  0  0  0  0  0  0  0  0  0  # atno 17394 bound_to 11000
  139.8983  134.8617  156.2009 LP  0  0  0  0  0  0  0  0  0  0  0  0  # atno 17395 bound_to 11000

$$$$
