AV-unprocessed.smi:2845|AV-procd|sdf|10950|dock6
  -GOLD-   2272015403D 1   1.00000     0.00000
 Structure written by MMmdl.
 43 45  0  0  0  0  0  0  0  0  2 V2000
  152.4737  144.2446  160.1380 C   0  0  0  0  0  0  0  0  0  0  0  0
  152.1128  143.1114  159.1924 C   0  0  0  0  0  0  0  0  0  0  0  0
  151.2037  143.3727  158.1425 C   0  0  0  0  0  0  0  0  0  0  0  0
  150.8972  142.3175  157.2915 C   0  0  0  0  0  0  0  0  0  0  0  0
  150.0554  142.2555  156.1789 N   0  3  0  0  0  0  0  0  0  0  0  0
  150.0796  140.9966  155.6604 C   0  0  0  0  0  0  0  0  0  0  0  0
  150.9231  140.2528  156.4262 N   0  0  0  0  0  0  0  0  0  0  0  0
  151.3040  138.8384  156.2995 C   0  0  0  0  0  0  0  0  0  0  0  0
  150.7380  138.1761  155.0281 C   0  0  1  0  0  0  0  0  0  0  0  0
  151.1961  136.8405  154.9340 O   0  0  0  0  0  0  0  0  0  0  0  0
  149.1976  138.2020  155.0062 C   0  0  0  0  0  0  0  0  0  0  0  0
  148.6135  137.4542  156.1052 N   0  0  0  0  0  0  0  0  0  0  0  0
  147.8276  136.3735  156.0969 C   0  0  0  0  0  0  0  0  0  0  0  0
  147.4854  135.9460  157.3052 N   0  0  0  0  0  0  0  0  0  0  0  0
  148.1433  136.8775  158.0542 C   0  0  0  0  0  0  0  0  0  0  0  0
  148.0764  136.8515  159.8730 S   0  0  2  0  0  0  0  0  0  0  0  0
  149.6973  137.7159  160.1287 C   0  0  0  0  0  0  0  0  0  0  0  0
  148.2782  135.3905  160.2813 O   0  0  0  0  0  0  0  0  0  0  0  0
  148.8327  137.8061  157.3942 N   0  0  0  0  0  0  0  0  0  0  0  0
  151.4576  141.0358  157.4567 C   0  0  0  0  0  0  0  0  0  0  0  0
  152.3543  140.7618  158.4869 C   0  0  0  0  0  0  0  0  0  0  0  0
  152.6805  141.8221  159.3623 C   0  0  0  0  0  0  0  0  0  0  0  0
  153.6602  141.5527  160.4917 C   0  0  0  0  0  0  0  0  0  0  0  0
  151.9737  145.1725  159.8584 H   0  0  0  0  0  0  0  0  0  0  0  0
  153.5483  144.4284  160.1238 H   0  0  0  0  0  0  0  0  0  0  0  0
  152.1767  144.0007  161.1582 H   0  0  0  0  0  0  0  0  0  0  0  0
  150.7682  144.3519  158.0060 H   0  0  0  0  0  0  0  0  0  0  0  0
  149.5295  140.6511  154.7969 H   0  0  0  0  0  0  0  0  0  0  0  0
  152.3899  138.7520  156.3429 H   0  0  0  0  0  0  0  0  0  0  0  0
  150.9230  138.3259  157.1838 H   0  0  0  0  0  0  0  0  0  0  0  0
  151.1117  138.7141  154.1559 H   0  0  0  0  0  0  0  0  0  0  0  0
  150.7492  136.4189  154.2153 H   0  0  0  0  0  0  0  0  0  0  0  0
  148.8296  139.2288  155.0405 H   0  0  0  0  0  0  0  0  0  0  0  0
  148.8297  137.7705  154.0746 H   0  0  0  0  0  0  0  0  0  0  0  0
  147.5026  135.8884  155.1881 H   0  0  0  0  0  0  0  0  0  0  0  0
  149.9228  138.3805  159.2944 H   0  0  0  0  0  0  0  0  0  0  0  0
  150.5031  136.9874  160.2197 H   0  0  0  0  0  0  0  0  0  0  0  0
  149.6634  138.3108  161.0411 H   0  0  0  0  0  0  0  0  0  0  0  0
  152.7939  139.7834  158.6121 H   0  0  0  0  0  0  0  0  0  0  0  0
  153.9592  140.5043  160.5186 H   0  0  0  0  0  0  0  0  0  0  0  0
  153.2129  141.7944  161.4560 H   0  0  0  0  0  0  0  0  0  0  0  0
  154.5610  142.1539  160.3662 H   0  0  0  0  0  0  0  0  0  0  0  0
  149.5057  143.0152  155.7982 H   0  0  0  0  0  0  0  0  0  0  0  0
  1  2  1  0  0  0  0
  1 24  1  0  0  0  0
  1 25  1  0  0  0  0
  1 26  1  0  0  0  0
  2 22  1  0  0  0  0
  2  3  2  0  0  0  0
  3  4  1  0  0  0  0
  3 27  1  0  0  0  0
  4 20  2  0  0  0  0
  4  5  1  0  0  0  0
  5  6  2  0  0  0  0
  5 43  1  0  0  0  0
  6  7  1  0  0  0  0
  6 28  1  0  0  0  0
  7  8  1  0  0  0  0
  7 20  1  0  0  0  0
  8  9  1  0  0  0  0
  8 29  1  0  0  0  0
  8 30  1  0  0  0  0
  9 10  1  0  0  0  0
  9 11  1  0  0  0  0
  9 31  1  0  0  0  0
 10 32  1  0  0  0  0
 11 12  1  0  0  0  0
 11 33  1  0  0  0  0
 11 34  1  0  0  0  0
 12 19  1  0  0  0  0
 12 13  1  0  0  0  0
 13 14  2  0  0  0  0
 13 35  1  0  0  0  0
 14 15  1  0  0  0  0
 15 16  1  0  0  0  0
 15 19  2  0  0  0  0
 16 17  1  0  0  0  0
 16 18  2  0  0  0  0
 17 36  1  0  0  0  0
 17 37  1  0  0  0  0
 17 38  1  0  0  0  0
 20 21  1  0  0  0  0
 21 22  2  0  0  0  0
 21 39  1  0  0  0  0
 22 23  1  0  0  0  0
 23 40  1  0  0  0  0
 23 41  1  0  0  0  0
 23 42  1  0  0  0  0
M  CHG  1   5   1
M  END
> <s_m_source_file>
AV-unprocessed.smi

> <i_m_source_file_index>
2845

> <i_lp_mmshare_version>
43012

> <i_f3d_flags>
0

> <s_epik_input>
W0NIM11jKFtjSF0xKWMoW0NIM10pW2NIXWMoYzEyKW4oW2NIXW4yKVtDSDJdW0NASF0oW09IXSlbQ0gyXW4zW2NIXW5jKG4zKVtTQF0oPU8pW0NIM10=

> <s_epik_cmdline>
J2VwaWtfcHl0aG9uJywgJy1waCcsICc3LjAnLCAnLXRuJywgJzgnLCAnLW1hJywgJzIwMCcsICctbWV0YWxfYmluZGluZycsICctaW1hZScsICc8aW5maWxlLm1hZT4nLCAnLW9tYWUnLCAnPG91dGZpbGUubWFlPic=

> <r_lp_tautomer_probability>
1

> <r_epik_Ionization_Penalty>
1.12076

> <r_epik_Ionization_Penalty_Charging>
1.12075

> <r_epik_Ionization_Penalty_Neutral>
1.54566e-06

> <r_epik_State_Penalty>
1.17957

> <r_epik_Charging_Adjusted_Penalty>
2.30033

> <i_epik_Tot_Q>
1

> <i_epik_Tot_abs_Q>
1

> <r_epik_Metal_State_Penalty>
1.26402

> <b_epik_Metal_Only>
0

> <s_lp_Force_Field>
OPLS_2005

> <r_lp_Energy>
14.8832

> <b_lp_Chiralities_Consistent>
1

> <s_lp_Variant>
AV-unprocessed.smi:2845-8

> <Gold.Version>
5.8.1

> <Gold.Id.Protein>
6NUR|6NUR_protein|mol2

> <Gold.PLP.Fitness>
59.3234

> <Gold.PLP.PLP>
-41.8716

> <Gold.PLP.part.hbond>
-4.0000

> <Gold.PLP.part.metal>
0.0000

> <Gold.PLP.part.buried>
-4.1361

> <Gold.PLP.part.nonpolar>
-33.5857

> <Gold.PLP.part.repulsive>
0.1523

> <Gold.PLP.ligand.clash>
0.0000

> <Gold.PLP.ligand.torsion>
0.5564

> <Gold.PLP.Chemscore.Hbond>
4.8483

> <Gold.PLP.Chemscore.CHOScore>
1.0000

> <Gold.PLP.Chemscore.Metal>
0.0000

> <Gold.Chemscore.Hbonds>
donor molecule, donor type, donor heavy atom, donor atom, acceptor molecule, acceptor atom, score
      L1  H     5    43       P1  8028  2.00
      P1  H 10752 10764       L1    10  0.23

> <Gold.PLP.Chemscore.Internal.Correction>
1.0200

> <Gold.Rescore>
     Score         DG    S(hbond)    S(metal)    S(lipo)     H(rot)  DE(clash)    DE(int)     intcor
     16.69     -19.65       2.87        0.00      99.80       2.77       0.24       2.72       ----

> <Gold.Chemscore.Fitness>
16.6924

> <Gold.Chemscore.DG>
-19.6451

> <Gold.Chemscore.ZeroCoef>
-5.4800

> <Gold.Chemscore.Hbond>
2.8668

> <Gold.Chemscore.Metal>
0.0000

> <Gold.Chemscore.Lipo>
99.7955

> <Gold.Chemscore.Internal_Hbond>
0.0000

> <Gold.Chemscore.DEClash>
0.2353

> <Gold.Chemscore.DEInternal>
2.7174

> <Gold.Chemscore.Rot>
2.7681

> <Gold.Chemscore.Internal.Correction>
   9.000000E+99

> <Gold.Chemscore.Hbonds>
donor molecule, donor type, donor heavy atom, donor atom, acceptor molecule, acceptor atom, score
      L1  H     5    43       P1  8028  0.99

> <Gold.Chemscore.Hbond.Weighted>
-9.5752

> <Gold.Chemscore.Metal.Weighted>
-0.0000

> <Gold.Chemscore.Lipo.Weighted>
-11.6761

> <Gold.Chemscore.Internal_Hbond.Weighted>
0.0000

> <Gold.Chemscore.DEClash.Weighted>
0.2353

> <Gold.Chemscore.DEInternal.Weighted>
2.7174

> <Gold.Chemscore.Rot.Weighted>
7.0863

> <Gold.Chemscore.Internal.Correction.Weighted>
   9.000000E+99

> <Gold.Protein.RotatedTorsions>
[ 6907 6896 6895 6894 ] final  144.65 input  -60.11 | X-H torsion
[ 7974 7965 7964 7962 ] final -130.22 input  175.53 | X-H torsion
[ 8008 7997 7996 7995 ] final  -84.07 input   59.86 | X-H torsion
[ 10167 10162 10161 10158 ] final -134.59 input  -65.29 | X-H torsion
[ 10718 10713 10712 10709 ] final   92.53 input   66.30 | X-H torsion
[ 10763 10752 10751 10750 ] final  -69.56 input  -60.55 | X-H torsion
[ 11005 11000 10999 10996 ] final  146.50 input  -57.11 | X-H torsion

> <Gold.Protein.ActiveResidues>
 VAL166  LYS551  ARG553  GLY616  TRP617  ASP618  TYR619  PRO620  LYS621  CYS622 
 ASP623  PHE694  ASN695  SER759  ASP760  ASP761  ALA762  ILE779  LEU786  VAL792 
 PHE793  MET794  SER795  GLU796  ALA797  LYS798  CYS799  TRP800  GLU811  SER814 

> <Gold.Protein.RotatedAtoms>
  152.1909  133.4772  159.5007 H   0  0  0  0  0  0  0  0  0  0  0  0  # atno 6907 bound_to 6896
  150.6951  134.1713  159.4222 H   0  0  0  0  0  0  0  0  0  0  0  0  # atno 6908 bound_to 6896
  151.9628  135.0115  160.0599 H   0  0  0  0  0  0  0  0  0  0  0  0  # atno 6909 bound_to 6896
  144.9495  140.7329  143.4796 H   0  0  0  0  0  0  0  0  0  0  0  0  # atno 7974 bound_to 7965
  154.6259  140.0610  156.9672 H   0  0  0  0  0  0  0  0  0  0  0  0  # atno 8008 bound_to 7997
  155.1743  140.3293  155.4368 H   0  0  0  0  0  0  0  0  0  0  0  0  # atno 8009 bound_to 7997
  156.2457  140.1908  156.6843 H   0  0  0  0  0  0  0  0  0  0  0  0  # atno 8010 bound_to 7997
  139.8865  143.6775  152.2619 H   0  0  0  0  0  0  0  0  0  0  0  0  # atno 10167 bound_to 10162
  157.6958  131.0446  150.3895 H   0  0  0  0  0  0  0  0  0  0  0  0  # atno 10718 bound_to 10713
  154.4051  135.6022  153.5920 H   0  0  0  0  0  0  0  0  0  0  0  0  # atno 10763 bound_to 10752
  152.9789  135.5916  154.4137 H   0  0  0  0  0  0  0  0  0  0  0  0  # atno 10764 bound_to 10752
  154.3941  135.2842  155.2115 H   0  0  0  0  0  0  0  0  0  0  0  0  # atno 10765 bound_to 10752
  140.0798  134.9104  157.1482 H   0  0  0  0  0  0  0  0  0  0  0  0  # atno 11005 bound_to 11000
  145.2865  139.1899  143.4763 LP  0  0  0  0  0  0  0  0  0  0  0  0  # atno 17320 bound_to 7965
  146.3316  140.2836  142.8611 LP  0  0  0  0  0  0  0  0  0  0  0  0  # atno 17321 bound_to 7965
  139.7148  144.7614  151.1051 LP  0  0  0  0  0  0  0  0  0  0  0  0  # atno 17342 bound_to 10162
  140.7735  143.5283  150.9454 LP  0  0  0  0  0  0  0  0  0  0  0  0  # atno 17343 bound_to 10162
  156.4300  130.3970  149.6767 LP  0  0  0  0  0  0  0  0  0  0  0  0  # atno 17370 bound_to 10713
  156.3987  130.7664  151.2670 LP  0  0  0  0  0  0  0  0  0  0  0  0  # atno 17371 bound_to 10713
  140.3504  134.2604  155.7199 LP  0  0  0  0  0  0  0  0  0  0  0  0  # atno 17394 bound_to 11000
  141.2042  133.7891  157.0297 LP  0  0  0  0  0  0  0  0  0  0  0  0  # atno 17395 bound_to 11000

$$$$
