AV-unprocessed.smi:1051|AV-procd|sdf|4615|dock2
  -GOLD-   22720 3113D 1   1.00000     0.00000
 Structure written by MMmdl.
 45 47  0  0  0  0  0  0  0  0  1 V2000
  145.8599  132.3660  152.9880 C   0  0  0  0  0  0  0  0  0  0  0  0
  146.6148  133.4490  153.7575 C   0  0  0  0  0  0  0  0  0  0  0  0
  146.2203  134.6121  153.6773 O   0  0  0  0  0  0  0  0  0  0  0  0
  147.7953  133.0353  154.5694 C   0  0  0  0  0  0  0  0  0  0  0  0
  148.1512  131.6690  154.6228 C   0  0  0  0  0  0  0  0  0  0  0  0
  149.2608  131.2500  155.3787 C   0  0  0  0  0  0  0  0  0  0  0  0
  150.0241  132.1925  156.0902 C   0  0  0  0  0  0  0  0  0  0  0  0
  149.6899  133.5603  156.0568 C   0  0  0  0  0  0  0  0  0  0  0  0
  150.4908  134.4130  156.7853 O   0  0  0  0  0  0  0  0  0  0  0  0
  150.0982  135.7739  156.9079 C   0  0  0  0  0  0  0  0  0  0  0  0
  151.2445  136.5595  157.5617 C   0  0  1  0  0  0  0  0  0  0  0  0
  152.1147  136.9712  156.5267 O   0  0  0  0  0  0  0  0  0  0  0  0
  150.7410  137.8107  158.3102 C   0  0  0  0  0  0  0  0  0  0  0  0
  151.8239  138.4831  159.0248 N   0  0  0  0  0  0  0  0  0  0  0  0
  152.7403  137.8976  159.8322 C   0  0  0  0  0  0  0  0  0  0  0  0
  152.8065  136.6970  160.0958 O   0  0  0  0  0  0  0  0  0  0  0  0
  153.5706  138.8629  160.2919 N   0  0  0  0  0  0  0  0  0  0  0  0
  154.6998  138.6924  161.1984 C   0  0  0  0  0  0  0  0  0  0  0  0
  153.1795  140.0978  159.7589 C   0  0  0  0  0  0  0  0  0  0  0  0
  153.7173  141.3855  159.9239 C   0  0  0  0  0  0  0  0  0  0  0  0
  153.0826  142.4438  159.2318 C   0  0  0  0  0  0  0  0  0  0  0  0
  151.9521  142.1998  158.4091 C   0  0  0  0  0  0  0  0  0  0  0  0
  151.4317  140.8927  158.2609 C   0  0  0  0  0  0  0  0  0  0  0  0
  152.0803  139.8600  158.9605 C   0  0  0  0  0  0  0  0  0  0  0  0
  148.5712  133.9754  155.2901 C   0  0  0  0  0  0  0  0  0  0  0  0
  146.5201  131.8727  152.2743 H   0  0  0  0  0  0  0  0  0  0  0  0
  145.0268  132.8014  152.4359 H   0  0  0  0  0  0  0  0  0  0  0  0
  145.4605  131.6181  153.6734 H   0  0  0  0  0  0  0  0  0  0  0  0
  147.5786  130.9278  154.0844 H   0  0  0  0  0  0  0  0  0  0  0  0
  149.5262  130.2038  155.4129 H   0  0  0  0  0  0  0  0  0  0  0  0
  150.8740  131.8624  156.6696 H   0  0  0  0  0  0  0  0  0  0  0  0
  149.8927  136.1795  155.9156 H   0  0  0  0  0  0  0  0  0  0  0  0
  149.1909  135.8650  157.5080 H   0  0  0  0  0  0  0  0  0  0  0  0
  151.7897  135.8941  158.2326 H   0  0  0  0  0  0  0  0  0  0  0  0
  152.9496  137.1961  156.9085 H   0  0  0  0  0  0  0  0  0  0  0  0
  150.2278  138.4973  157.6358 H   0  0  0  0  0  0  0  0  0  0  0  0
  149.9923  137.5215  159.0494 H   0  0  0  0  0  0  0  0  0  0  0  0
  154.5151  139.2256  162.1314 H   0  0  0  0  0  0  0  0  0  0  0  0
  155.6092  139.0931  160.7497 H   0  0  0  0  0  0  0  0  0  0  0  0
  154.8778  137.6435  161.4391 H   0  0  0  0  0  0  0  0  0  0  0  0
  154.5792  141.5626  160.5502 H   0  0  0  0  0  0  0  0  0  0  0  0
  153.4637  143.4497  159.3296 H   0  0  0  0  0  0  0  0  0  0  0  0
  151.4830  143.0219  157.8890 H   0  0  0  0  0  0  0  0  0  0  0  0
  150.5733  140.7015  157.6342 H   0  0  0  0  0  0  0  0  0  0  0  0
  148.3063  135.0199  155.2521 H   0  0  0  0  0  0  0  0  0  0  0  0
  1  2  1  0  0  0  0
  1 26  1  0  0  0  0
  1 27  1  0  0  0  0
  1 28  1  0  0  0  0
  2  3  2  0  0  0  0
  2  4  1  0  0  0  0
  4 25  1  0  0  0  0
  4  5  2  0  0  0  0
  5  6  1  0  0  0  0
  5 29  1  0  0  0  0
  6  7  2  0  0  0  0
  6 30  1  0  0  0  0
  7  8  1  0  0  0  0
  7 31  1  0  0  0  0
  8  9  1  0  0  0  0
  8 25  2  0  0  0  0
  9 10  1  0  0  0  0
 10 11  1  0  0  0  0
 10 32  1  0  0  0  0
 10 33  1  0  0  0  0
 11 12  1  0  0  0  0
 11 13  1  0  0  0  0
 11 34  1  0  0  0  0
 12 35  1  0  0  0  0
 13 14  1  0  0  0  0
 13 36  1  0  0  0  0
 13 37  1  0  0  0  0
 14 24  1  0  0  0  0
 14 15  1  0  0  0  0
 15 16  2  0  0  0  0
 15 17  1  0  0  0  0
 17 18  1  0  0  0  0
 17 19  1  0  0  0  0
 18 38  1  0  0  0  0
 18 39  1  0  0  0  0
 18 40  1  0  0  0  0
 19 24  2  0  0  0  0
 19 20  1  0  0  0  0
 20 21  2  0  0  0  0
 20 41  1  0  0  0  0
 21 22  1  0  0  0  0
 21 42  1  0  0  0  0
 22 23  2  0  0  0  0
 22 43  1  0  0  0  0
 23 24  1  0  0  0  0
 23 44  1  0  0  0  0
 25 45  1  0  0  0  0
M  END
> <s_m_source_file>
AV-unprocessed.smi

> <i_m_source_file_index>
1051

> <i_lp_mmshare_version>
43012

> <i_f3d_flags>
0

> <s_epik_input>
W0NIM11DKD1PKWMxW2NIXVtjSF1bY0hdYyhbY0hdMSlPW0NIMl1bQ0BIXShbT0hdKVtDSDJdbihjKD1PKW4yW0NIM10pYyhjMjMpW2NIXVtjSF1bY0hdW2NIXTM=

> <s_epik_cmdline>
J2VwaWtfcHl0aG9uJywgJy1waCcsICc3LjAnLCAnLXRuJywgJzgnLCAnLW1hJywgJzIwMCcsICctbWV0YWxfYmluZGluZycsICctaW1hZScsICc8aW5maWxlLm1hZT4nLCAnLW9tYWUnLCAnPG91dGZpbGUubWFlPic=

> <r_lp_tautomer_probability>
1

> <r_epik_Ionization_Penalty>
2.40143e-06

> <r_epik_Ionization_Penalty_Charging>
2.1343e-09

> <r_epik_Ionization_Penalty_Neutral>
2.3993e-06

> <r_epik_State_Penalty>
-0

> <r_epik_Charging_Adjusted_Penalty>
2.1343e-09

> <i_epik_Tot_Q>
0

> <i_epik_Tot_abs_Q>
0

> <r_epik_Metal_State_Penalty>
-0

> <b_epik_Metal_Only>
0

> <s_lp_Force_Field>
OPLS_2005

> <r_lp_Energy>
51.4738

> <b_lp_Chiralities_Consistent>
1

> <s_lp_Variant>
AV-unprocessed.smi:1051-2

> <Gold.Version>
5.8.1

> <Gold.Id.Protein>
6NUR|6NUR_protein|mol2

> <Gold.PLP.Fitness>
47.1133

> <Gold.PLP.PLP>
-42.1739

> <Gold.PLP.part.hbond>
-2.0000

> <Gold.PLP.part.metal>
0.0000

> <Gold.PLP.part.buried>
-5.2114

> <Gold.PLP.part.nonpolar>
-35.3769

> <Gold.PLP.part.repulsive>
0.7111

> <Gold.PLP.ligand.clash>
0.0000

> <Gold.PLP.ligand.torsion>
0.5239

> <Gold.PLP.Chemscore.Hbond>
1.9440

> <Gold.PLP.Chemscore.CHOScore>
0.0000

> <Gold.PLP.Chemscore.Metal>
0.0000

> <Gold.Chemscore.Hbonds>
donor molecule, donor type, donor heavy atom, donor atom, acceptor molecule, acceptor atom, score
      P1  H  6896  6909       L1    16  1.00
      P1  H 10752 10765       L1    12  0.06

> <Gold.PLP.Chemscore.Internal.Correction>
0.1551

> <Gold.Rescore>
     Score         DG    S(hbond)    S(metal)    S(lipo)     H(rot)  DE(clash)    DE(int)     intcor
     16.50     -17.84       1.80        0.00     104.48       2.30       0.21       1.13       ----

> <Gold.Chemscore.Fitness>
16.5008

> <Gold.Chemscore.DG>
-17.8389

> <Gold.Chemscore.ZeroCoef>
-5.4800

> <Gold.Chemscore.Hbond>
1.8020

> <Gold.Chemscore.Metal>
0.0000

> <Gold.Chemscore.Lipo>
104.4809

> <Gold.Chemscore.Internal_Hbond>
0.0000

> <Gold.Chemscore.DEClash>
0.2061

> <Gold.Chemscore.DEInternal>
1.1320

> <Gold.Chemscore.Rot>
2.2984

> <Gold.Chemscore.Internal.Correction>
   9.000000E+99

> <Gold.Chemscore.Hbonds>
donor molecule, donor type, donor heavy atom, donor atom, acceptor molecule, acceptor atom, score
      P1  H  6896  6909       L1    16  1.00

> <Gold.Chemscore.Hbond.Weighted>
-6.0185

> <Gold.Chemscore.Metal.Weighted>
-0.0000

> <Gold.Chemscore.Lipo.Weighted>
-12.2243

> <Gold.Chemscore.Internal_Hbond.Weighted>
0.0000

> <Gold.Chemscore.DEClash.Weighted>
0.2061

> <Gold.Chemscore.DEInternal.Weighted>
1.1320

> <Gold.Chemscore.Rot.Weighted>
5.8839

> <Gold.Chemscore.Internal.Correction.Weighted>
   9.000000E+99

> <Gold.Protein.RotatedTorsions>
[ 6907 6896 6895 6894 ] final  147.96 input  -60.11 | X-H torsion
[ 7974 7965 7964 7962 ] final  -39.06 input  175.53 | X-H torsion
[ 8008 7997 7996 7995 ] final  163.24 input   59.86 | X-H torsion
[ 10167 10162 10161 10158 ] final  -79.71 input  -65.29 | X-H torsion
[ 10718 10713 10712 10709 ] final -111.75 input   66.30 | X-H torsion
[ 10763 10752 10751 10750 ] final -137.87 input  -60.55 | X-H torsion
[ 11005 11000 10999 10996 ] final  -31.77 input  -57.11 | X-H torsion

> <Gold.Protein.ActiveResidues>
 VAL166  LYS551  ARG553  GLY616  TRP617  ASP618  TYR619  PRO620  LYS621  CYS622 
 ASP623  PHE694  ASN695  SER759  ASP760  ASP761  ALA762  ILE779  LEU786  VAL792 
 PHE793  MET794  SER795  GLU796  ALA797  LYS798  CYS799  TRP800  GLU811  SER814 

> <Gold.Protein.RotatedAtoms>
  152.1479  133.4503  159.4798 H   0  0  0  0  0  0  0  0  0  0  0  0  # atno 6907 bound_to 6896
  150.6892  134.2225  159.4411 H   0  0  0  0  0  0  0  0  0  0  0  0  # atno 6908 bound_to 6896
  152.0120  134.9870  160.0619 H   0  0  0  0  0  0  0  0  0  0  0  0  # atno 6909 bound_to 6896
  146.0430  140.6583  142.9078 H   0  0  0  0  0  0  0  0  0  0  0  0  # atno 7974 bound_to 7965
  156.1971  140.1729  156.7975 H   0  0  0  0  0  0  0  0  0  0  0  0  # atno 8008 bound_to 7997
  154.5544  140.0711  156.8751 H   0  0  0  0  0  0  0  0  0  0  0  0  # atno 8009 bound_to 7997
  155.2966  140.3359  155.4252 H   0  0  0  0  0  0  0  0  0  0  0  0  # atno 8010 bound_to 7997
  140.4568  143.2466  151.8407 H   0  0  0  0  0  0  0  0  0  0  0  0  # atno 10167 bound_to 10162
  156.0665  130.5883  150.8415 H   0  0  0  0  0  0  0  0  0  0  0  0  # atno 10718 bound_to 10713
  154.8651  135.3629  154.5292 H   0  0  0  0  0  0  0  0  0  0  0  0  # atno 10763 bound_to 10752
  153.5919  135.7015  153.5425 H   0  0  0  0  0  0  0  0  0  0  0  0  # atno 10764 bound_to 10752
  153.3366  135.4109  155.1500 H   0  0  0  0  0  0  0  0  0  0  0  0  # atno 10765 bound_to 10752
  140.9496  133.7229  156.1199 H   0  0  0  0  0  0  0  0  0  0  0  0  # atno 11005 bound_to 11000
  144.7084  140.3943  143.7100 LP  0  0  0  0  0  0  0  0  0  0  0  0  # atno 17320 bound_to 7965
  145.6853  139.1627  143.2678 LP  0  0  0  0  0  0  0  0  0  0  0  0  # atno 17321 bound_to 7965
  139.4802  144.5055  151.9003 LP  0  0  0  0  0  0  0  0  0  0  0  0  # atno 17342 bound_to 10162
  140.4141  144.2330  150.5888 LP  0  0  0  0  0  0  0  0  0  0  0  0  # atno 17343 bound_to 10162
  157.5710  131.0946  150.9418 LP  0  0  0  0  0  0  0  0  0  0  0  0  # atno 17370 bound_to 10713
  156.9635  130.5464  149.5287 LP  0  0  0  0  0  0  0  0  0  0  0  0  # atno 17371 bound_to 10713
  140.7621  134.3927  157.5524 LP  0  0  0  0  0  0  0  0  0  0  0  0  # atno 17394 bound_to 11000
  139.8843  134.8968  156.2709 LP  0  0  0  0  0  0  0  0  0  0  0  0  # atno 17395 bound_to 11000

$$$$
