AV-unprocessed.smi:2059|AV-procd|sdf|8352|dock9
  -GOLD-   2272011 23D 1   1.00000     0.00000
 Structure written by MMmdl.
 29 30  0  0  0  0  0  0  0  0  2 V2000
  151.7665  145.3815  159.8983 C   0  0  0  0  0  0  0  0  0  0  0  0
  151.7063  144.0994  159.1410 C   0  0  0  0  0  0  0  0  0  0  0  0
  151.1848  143.7610  157.9243 C   0  0  0  0  0  0  0  0  0  0  0  0
  151.4727  142.3732  157.8209 C   0  0  0  0  0  0  0  0  0  0  0  0
  151.0745  141.6484  156.6608 N   0  0  0  0  0  0  0  0  0  0  0  0
  151.5363  140.5006  156.1190 C   0  0  0  0  0  0  0  0  0  0  0  0
  152.4719  139.9747  156.7306 O   0  0  0  0  0  0  0  0  0  0  0  0
  150.9462  140.0369  154.9791 N   0  5  0  0  0  0  0  0  0  0  0  0
  149.5137  140.1018  154.6803 C   0  0  2  0  0  0  0  0  0  0  0  0
  149.0772  141.5564  154.4170 C   0  0  0  0  0  0  0  0  0  0  0  0
  147.5436  141.6249  154.4585 C   0  0  0  0  0  0  0  0  0  0  0  0
  147.0201  140.3511  155.6709 S   0  0  0  0  0  0  0  0  0  0  0  0
  146.6510  141.0003  156.9386 O   0  0  0  0  0  0  0  0  0  0  0  0
  146.0981  139.4136  155.0102 O   0  0  0  0  0  0  0  0  0  0  0  0
  148.6726  139.5722  155.8524 C   0  0  0  0  0  0  0  0  0  0  0  0
  152.1182  141.9114  158.8831 N   0  0  0  0  0  0  0  0  0  0  0  0
  152.2703  143.0129  159.7330 O   0  0  0  0  0  0  0  0  0  0  0  0
  151.1825  146.1560  159.4008 H   0  0  0  0  0  0  0  0  0  0  0  0
  152.7949  145.7331  159.9805 H   0  0  0  0  0  0  0  0  0  0  0  0
  151.3695  145.2544  160.9058 H   0  0  0  0  0  0  0  0  0  0  0  0
  150.6768  144.4047  157.2216 H   0  0  0  0  0  0  0  0  0  0  0  0
  150.3072  142.0650  156.1548 H   0  0  0  0  0  0  0  0  0  0  0  0
  149.2563  139.5220  153.7923 H   0  0  0  0  0  0  0  0  0  0  0  0
  149.4755  142.2024  155.2014 H   0  0  0  0  0  0  0  0  0  0  0  0
  149.4662  141.9309  153.4696 H   0  0  0  0  0  0  0  0  0  0  0  0
  147.1738  142.6049  154.7593 H   0  0  0  0  0  0  0  0  0  0  0  0
  147.1094  141.3727  153.4898 H   0  0  0  0  0  0  0  0  0  0  0  0
  148.5816  138.4860  155.8525 H   0  0  0  0  0  0  0  0  0  0  0  0
  149.0854  139.8881  156.8112 H   0  0  0  0  0  0  0  0  0  0  0  0
  1  2  1  0  0  0  0
  1 18  1  0  0  0  0
  1 19  1  0  0  0  0
  1 20  1  0  0  0  0
  2 17  1  0  0  0  0
  2  3  2  0  0  0  0
  3  4  1  0  0  0  0
  3 21  1  0  0  0  0
  4  5  1  0  0  0  0
  4 16  2  0  0  0  0
  5  6  1  0  0  0  0
  5 22  1  0  0  0  0
  6  7  2  0  0  0  0
  6  8  1  0  0  0  0
  8  9  1  0  0  0  0
  9 15  1  0  0  0  0
  9 10  1  0  0  0  0
  9 23  1  0  0  0  0
 10 11  1  0  0  0  0
 10 24  1  0  0  0  0
 10 25  1  0  0  0  0
 11 12  1  0  0  0  0
 11 26  1  0  0  0  0
 11 27  1  0  0  0  0
 12 13  2  0  0  0  0
 12 14  2  0  0  0  0
 12 15  1  0  0  0  0
 15 28  1  0  0  0  0
 15 29  1  0  0  0  0
 16 17  1  0  0  0  0
M  CHG  1   8  -1
M  END
> <s_m_source_file>
AV-unprocessed.smi

> <i_m_source_file_index>
2059

> <i_lp_mmshare_version>
43012

> <i_f3d_flags>
0

> <s_epik_input>
W0NIM11jMVtjSF1jKG5vMSlbTkhdQyg9TylbTkhdW0NAQEhdKFtDSDJdMilbQ0gyXVtDSDJdUzIoPU8pPU8=

> <s_epik_cmdline>
J2VwaWtfcHl0aG9uJywgJy1waCcsICc3LjAnLCAnLXRuJywgJzgnLCAnLW1hJywgJzIwMCcsICctbWV0YWxfYmluZGluZycsICctaW1hZScsICc8aW5maWxlLm1hZT4nLCAnLW9tYWUnLCAnPG91dGZpbGUubWFlPic=

> <r_lp_tautomer_probability>
1

> <r_epik_Ionization_Penalty>
6.6071

> <r_epik_Ionization_Penalty_Charging>
6.60709

> <r_epik_Ionization_Penalty_Neutral>
5.42629e-06

> <r_epik_State_Penalty>
6.6352

> <r_epik_Charging_Adjusted_Penalty>
13.2423

> <i_epik_Tot_Q>
-1

> <i_epik_Tot_abs_Q>
1

> <r_epik_Metal_State_Penalty>
2.57602

> <b_epik_Metal_Only>
1

> <s_lp_Force_Field>
OPLS_2005

> <r_lp_Energy>
11.3724

> <b_lp_Chiralities_Consistent>
1

> <s_lp_Variant>
AV-unprocessed.smi:2059-5

> <Gold.Version>
5.8.1

> <Gold.Id.Protein>
6NUR|6NUR_protein|mol2

> <Gold.PLP.Fitness>
34.8212

> <Gold.PLP.PLP>
-29.8078

> <Gold.PLP.part.hbond>
-2.0000

> <Gold.PLP.part.metal>
0.0000

> <Gold.PLP.part.buried>
-4.2737

> <Gold.PLP.part.nonpolar>
-23.8717

> <Gold.PLP.part.repulsive>
0.2454

> <Gold.PLP.ligand.clash>
0.0000

> <Gold.PLP.ligand.torsion>
0.4945

> <Gold.PLP.Chemscore.Hbond>
2.0000

> <Gold.PLP.Chemscore.CHOScore>
0.0000

> <Gold.PLP.Chemscore.Metal>
0.0000

> <Gold.Chemscore.Hbonds>
donor molecule, donor type, donor heavy atom, donor atom, acceptor molecule, acceptor atom, score
      P1  H  7989  7998       L1     8  1.00
      P1  H  7997  8008       L1     7  1.00

> <Gold.PLP.Chemscore.Internal.Correction>
0.0023

> <Gold.Rescore>
     Score         DG    S(hbond)    S(metal)    S(lipo)     H(rot)  DE(clash)    DE(int)     intcor
     13.49     -15.54       1.73        0.00      58.33       1.00       0.01       2.04       ----

> <Gold.Chemscore.Fitness>
13.4892

> <Gold.Chemscore.DG>
-15.5397

> <Gold.Chemscore.ZeroCoef>
-5.4800

> <Gold.Chemscore.Hbond>
1.7350

> <Gold.Chemscore.Metal>
0.0000

> <Gold.Chemscore.Lipo>
58.3322

> <Gold.Chemscore.Internal_Hbond>
0.0000

> <Gold.Chemscore.DEClash>
0.0060

> <Gold.Chemscore.DEInternal>
2.0445

> <Gold.Chemscore.Rot>
1.0000

> <Gold.Chemscore.Internal.Correction>
   9.000000E+99

> <Gold.Chemscore.Hbonds>
donor molecule, donor type, donor heavy atom, donor atom, acceptor molecule, acceptor atom, score
      P1  H  7989  7998       L1     8  0.24
      P1  H  7997  8008       L1     7  1.00

> <Gold.Chemscore.Hbond.Weighted>
-5.7948

> <Gold.Chemscore.Metal.Weighted>
-0.0000

> <Gold.Chemscore.Lipo.Weighted>
-6.8249

> <Gold.Chemscore.Internal_Hbond.Weighted>
0.0000

> <Gold.Chemscore.DEClash.Weighted>
0.0060

> <Gold.Chemscore.DEInternal.Weighted>
2.0445

> <Gold.Chemscore.Rot.Weighted>
2.5600

> <Gold.Chemscore.Internal.Correction.Weighted>
   9.000000E+99

> <Gold.Protein.RotatedTorsions>
[ 6907 6896 6895 6894 ] final -174.91 input  -60.11 | X-H torsion
[ 7974 7965 7964 7962 ] final -132.66 input  175.53 | X-H torsion
[ 8008 7997 7996 7995 ] final  -50.86 input   59.86 | X-H torsion
[ 10167 10162 10161 10158 ] final  -29.63 input  -65.29 | X-H torsion
[ 10718 10713 10712 10709 ] final  -18.80 input   66.30 | X-H torsion
[ 10763 10752 10751 10750 ] final  107.86 input  -60.55 | X-H torsion
[ 11005 11000 10999 10996 ] final  -89.41 input  -57.11 | X-H torsion

> <Gold.Protein.ActiveResidues>
 VAL166  LYS551  ARG553  GLY616  TRP617  ASP618  TYR619  PRO620  LYS621  CYS622 
 ASP623  PHE694  ASN695  SER759  ASP760  ASP761  ALA762  ILE779  LEU786  VAL792 
 PHE793  MET794  SER795  GLU796  ALA797  LYS798  CYS799  TRP800  GLU811  SER814 

> <Gold.Protein.RotatedAtoms>
  151.5800  133.3379  159.3006 H   0  0  0  0  0  0  0  0  0  0  0  0  # atno 6907 bound_to 6896
  150.8319  134.7579  159.6872 H   0  0  0  0  0  0  0  0  0  0  0  0  # atno 6908 bound_to 6896
  152.4401  134.5614  159.9947 H   0  0  0  0  0  0  0  0  0  0  0  0  # atno 6909 bound_to 6896
  144.9265  140.7077  143.4933 H   0  0  0  0  0  0  0  0  0  0  0  0  # atno 7974 bound_to 7965
  154.4070  140.1262  156.4735 H   0  0  0  0  0  0  0  0  0  0  0  0  # atno 8008 bound_to 7997
  155.7156  140.3493  155.4973 H   0  0  0  0  0  0  0  0  0  0  0  0  # atno 8009 bound_to 7997
  155.9261  140.1061  157.1159 H   0  0  0  0  0  0  0  0  0  0  0  0  # atno 8010 bound_to 7997
  140.7258  143.3913  151.1425 H   0  0  0  0  0  0  0  0  0  0  0  0  # atno 10167 bound_to 10162
  156.5546  130.4710  149.6436 H   0  0  0  0  0  0  0  0  0  0  0  0  # atno 10718 bound_to 10713
  153.4126  135.3830  155.2060 H   0  0  0  0  0  0  0  0  0  0  0  0  # atno 10763 bound_to 10752
  154.8739  135.3798  154.4482 H   0  0  0  0  0  0  0  0  0  0  0  0  # atno 10764 bound_to 10752
  153.4992  135.7088  153.5903 H   0  0  0  0  0  0  0  0  0  0  0  0  # atno 10765 bound_to 10752
  141.1585  133.7628  156.9590 H   0  0  0  0  0  0  0  0  0  0  0  0  # atno 11005 bound_to 11000
  145.3211  139.1788  143.4587 LP  0  0  0  0  0  0  0  0  0  0  0  0  # atno 17320 bound_to 7965
  146.3228  140.3229  142.8634 LP  0  0  0  0  0  0  0  0  0  0  0  0  # atno 17321 bound_to 7965
  139.7519  143.8766  152.3079 LP  0  0  0  0  0  0  0  0  0  0  0  0  # atno 17342 bound_to 10162
  139.8623  144.7111  150.9085 LP  0  0  0  0  0  0  0  0  0  0  0  0  # atno 17343 bound_to 10162
  156.2854  130.7094  151.1929 LP  0  0  0  0  0  0  0  0  0  0  0  0  # atno 17370 bound_to 10713
  157.7381  131.0545  150.5316 LP  0  0  0  0  0  0  0  0  0  0  0  0  # atno 17371 bound_to 10713
  140.1206  134.9420  157.2197 LP  0  0  0  0  0  0  0  0  0  0  0  0  # atno 17394 bound_to 11000
  140.3077  134.3059  155.7274 LP  0  0  0  0  0  0  0  0  0  0  0  0  # atno 17395 bound_to 11000

$$$$
