AV-unprocessed.smi:1971|AV-procd|sdf|7971|dock4
  -GOLD-   2272010143D 1   1.00000     0.00000
 Structure written by MMmdl.
 43 44  0  0  0  0  0  0  0  0  3 V2000
  144.5295  131.7321  150.8628 C   0  0  0  0  0  0  0  0  0  0  0  0
  144.6993  132.8892  151.8581 C   0  0  0  0  0  0  0  0  0  0  0  0
  145.6788  133.8735  151.3915 N   0  0  0  0  0  0  0  0  0  0  0  0
  145.7317  135.1129  152.1755 C   0  0  0  0  0  0  0  0  0  0  0  0
  146.3298  134.8913  153.5807 C   0  0  0  0  0  0  0  0  0  0  0  0
  147.6893  134.3072  153.4740 N   0  3  0  0  0  0  0  0  0  0  0  0
  148.4170  134.2330  154.7732 C   0  0  1  0  0  0  0  0  0  0  0  0
  149.7527  133.4634  154.6787 C   0  0  0  0  0  0  0  0  0  0  0  0
  148.5816  135.6450  155.3810 C   0  0  0  0  0  0  0  0  0  0  0  0
  149.0181  135.6070  156.7728 N   0  0  0  0  0  0  0  0  0  0  0  0
  148.2521  135.2838  157.8242 C   0  0  0  0  0  0  0  0  0  0  0  0
  147.0624  135.0063  157.6553 O   0  0  0  0  0  0  0  0  0  0  0  0
  148.9145  135.2961  159.0022 N   0  5  0  0  0  0  0  0  0  0  0  0
  148.2370  135.1758  160.1555 C   0  0  0  0  0  0  0  0  0  0  0  0
  147.9894  136.2116  160.9654 N   0  0  0  0  0  0  0  0  0  0  0  0
  147.2647  135.8633  162.1067 C   0  0  0  0  0  0  0  0  0  0  0  0
  146.9459  134.5324  162.1628 C   0  0  0  0  0  0  0  0  0  0  0  0
  147.5505  133.6718  160.7760 S   0  0  0  0  0  0  0  0  0  0  0  0
  147.6519  133.0513  152.6808 C   0  0  0  0  0  0  0  0  0  0  0  0
  147.0306  133.3161  151.2933 C   0  0  0  0  0  0  0  0  0  0  0  0
  143.8942  130.9550  151.2879 H   0  0  0  0  0  0  0  0  0  0  0  0
  145.4893  131.2752  150.6199 H   0  0  0  0  0  0  0  0  0  0  0  0
  144.0615  132.0549  149.9331 H   0  0  0  0  0  0  0  0  0  0  0  0
  143.7344  133.3485  152.0698 H   0  0  0  0  0  0  0  0  0  0  0  0
  145.0546  132.4704  152.8005 H   0  0  0  0  0  0  0  0  0  0  0  0
  146.3453  135.8340  151.6338 H   0  0  0  0  0  0  0  0  0  0  0  0
  144.7426  135.5631  152.2499 H   0  0  0  0  0  0  0  0  0  0  0  0
  146.3857  135.8525  154.0925 H   0  0  0  0  0  0  0  0  0  0  0  0
  145.6843  134.2554  154.1864 H   0  0  0  0  0  0  0  0  0  0  0  0
  147.7747  133.6742  155.4549 H   0  0  0  0  0  0  0  0  0  0  0  0
  150.1762  133.2916  155.6686 H   0  0  0  0  0  0  0  0  0  0  0  0
  150.4971  134.0126  154.1021 H   0  0  0  0  0  0  0  0  0  0  0  0
  149.6235  132.4848  154.2169 H   0  0  0  0  0  0  0  0  0  0  0  0
  149.3252  136.2171  154.8270 H   0  0  0  0  0  0  0  0  0  0  0  0
  147.6470  136.2036  155.3077 H   0  0  0  0  0  0  0  0  0  0  0  0
  149.9853  135.8306  156.9569 H   0  0  0  0  0  0  0  0  0  0  0  0
  147.0173  136.6289  162.8268 H   0  0  0  0  0  0  0  0  0  0  0  0
  146.3950  134.0087  162.9293 H   0  0  0  0  0  0  0  0  0  0  0  0
  148.6618  132.6651  152.5468 H   0  0  0  0  0  0  0  0  0  0  0  0
  147.0897  132.2787  153.2054 H   0  0  0  0  0  0  0  0  0  0  0  0
  147.0084  132.3976  150.7056 H   0  0  0  0  0  0  0  0  0  0  0  0
  147.6576  134.0169  150.7405 H   0  0  0  0  0  0  0  0  0  0  0  0
  148.2133  134.9690  152.9194 H   0  0  0  0  0  0  0  0  0  0  0  0
  1  2  1  0  0  0  0
  1 21  1  0  0  0  0
  1 22  1  0  0  0  0
  1 23  1  0  0  0  0
  2  3  1  0  0  0  0
  2 24  1  0  0  0  0
  2 25  1  0  0  0  0
  3 20  1  0  0  0  0
  3  4  1  0  0  0  0
  4  5  1  0  0  0  0
  4 26  1  0  0  0  0
  4 27  1  0  0  0  0
  5  6  1  0  0  0  0
  5 28  1  0  0  0  0
  5 29  1  0  0  0  0
  6  7  1  0  0  0  0
  6 19  1  0  0  0  0
  6 43  1  0  0  0  0
  7  8  1  0  0  0  0
  7  9  1  0  0  0  0
  7 30  1  0  0  0  0
  8 31  1  0  0  0  0
  8 32  1  0  0  0  0
  8 33  1  0  0  0  0
  9 10  1  0  0  0  0
  9 34  1  0  0  0  0
  9 35  1  0  0  0  0
 10 11  1  0  0  0  0
 10 36  1  0  0  0  0
 11 12  2  0  0  0  0
 11 13  1  0  0  0  0
 13 14  1  0  0  0  0
 14 18  1  0  0  0  0
 14 15  2  0  0  0  0
 15 16  1  0  0  0  0
 16 17  2  0  0  0  0
 16 37  1  0  0  0  0
 17 18  1  0  0  0  0
 17 38  1  0  0  0  0
 19 20  1  0  0  0  0
 19 39  1  0  0  0  0
 19 40  1  0  0  0  0
 20 41  1  0  0  0  0
 20 42  1  0  0  0  0
M  CHG  1   6   1
M  CHG  1  13  -1
M  END
> <s_m_source_file>
AV-unprocessed.smi

> <i_m_source_file_index>
1971

> <i_lp_mmshare_version>
43012

> <i_f3d_flags>
0

> <s_epik_input>
W0NIM11bQ0gyXU4xW0NIMl1bQ0gyXU4oW0NIMl1bQ0gyXTEpW0NASF0oW0NIM10pW0NIMl1bTkhdQyg9TylbTkhdYzJuW2NIXVtjSF1zMg==

> <s_epik_cmdline>
J2VwaWtfcHl0aG9uJywgJy1waCcsICc3LjAnLCAnLXRuJywgJzgnLCAnLW1hJywgJzIwMCcsICctbWV0YWxfYmluZGluZycsICctaW1hZScsICc8aW5maWxlLm1hZT4nLCAnLW9tYWUnLCAnPG91dGZpbGUubWFlPic=

> <r_epik_Ionization_Penalty>
6.3441

> <r_epik_Ionization_Penalty_Charging>
5.51153

> <r_epik_Ionization_Penalty_Neutral>
0.832567

> <r_epik_State_Penalty>
6.33945

> <r_epik_Charging_Adjusted_Penalty>
11.851

> <i_epik_Tot_Q>
0

> <i_epik_Tot_abs_Q>
2

> <r_epik_Metal_State_Penalty>
2.34542

> <b_epik_Metal_Only>
1

> <s_lp_Force_Field>
OPLS_2005

> <r_lp_Energy>
10.682

> <b_lp_Chiralities_Consistent>
1

> <s_lp_Variant>
AV-unprocessed.smi:1971-10

> <Gold.Version>
5.8.1

> <Gold.Id.Protein>
6NUR|6NUR_protein|mol2

> <Gold.PLP.Fitness>
41.2980

> <Gold.PLP.PLP>
-31.0615

> <Gold.PLP.part.hbond>
-2.0000

> <Gold.PLP.part.metal>
0.0000

> <Gold.PLP.part.buried>
-4.8894

> <Gold.PLP.part.nonpolar>
-24.1353

> <Gold.PLP.part.repulsive>
0.1660

> <Gold.PLP.ligand.clash>
0.0000

> <Gold.PLP.ligand.torsion>
0.9943

> <Gold.PLP.Chemscore.Hbond>
4.0000

> <Gold.PLP.Chemscore.CHOScore>
0.0000

> <Gold.PLP.Chemscore.Metal>
0.0000

> <Gold.Chemscore.Hbonds>
donor molecule, donor type, donor heavy atom, donor atom, acceptor molecule, acceptor atom, score
      L1  H     6    43       P1  7948  2.00
      P1  H  6896  6907       L1    13  1.92

> <Gold.PLP.Chemscore.Internal.Correction>
0.2252

> <Gold.Rescore>
     Score         DG    S(hbond)    S(metal)    S(lipo)     H(rot)  DE(clash)    DE(int)     intcor
     13.84     -14.93       1.82        0.00      67.03       1.75       0.00       1.09       ----

> <Gold.Chemscore.Fitness>
13.8398

> <Gold.Chemscore.DG>
-14.9281

> <Gold.Chemscore.ZeroCoef>
-5.4800

> <Gold.Chemscore.Hbond>
1.8225

> <Gold.Chemscore.Metal>
0.0000

> <Gold.Chemscore.Lipo>
67.0280

> <Gold.Chemscore.Internal_Hbond>
0.0000

> <Gold.Chemscore.DEClash>
0.0015

> <Gold.Chemscore.DEInternal>
1.0869

> <Gold.Chemscore.Rot>
1.7505

> <Gold.Chemscore.Internal.Correction>
   9.000000E+99

> <Gold.Chemscore.Hbonds>
donor molecule, donor type, donor heavy atom, donor atom, acceptor molecule, acceptor atom, score
      L1  H     6    43       P1  7948  0.85
      P1  H  6896  6907       L1    13  0.26

> <Gold.Chemscore.Hbond.Weighted>
-6.0872

> <Gold.Chemscore.Metal.Weighted>
-0.0000

> <Gold.Chemscore.Lipo.Weighted>
-7.8423

> <Gold.Chemscore.Internal_Hbond.Weighted>
0.0000

> <Gold.Chemscore.DEClash.Weighted>
0.0015

> <Gold.Chemscore.DEInternal.Weighted>
1.0869

> <Gold.Chemscore.Rot.Weighted>
4.4813

> <Gold.Chemscore.Internal.Correction.Weighted>
   9.000000E+99

> <Gold.Protein.RotatedTorsions>
[ 6907 6896 6895 6894 ] final  -90.97 input  -60.11 | X-H torsion
[ 7974 7965 7964 7962 ] final  133.28 input  175.53 | X-H torsion
[ 8008 7997 7996 7995 ] final -106.57 input   59.86 | X-H torsion
[ 10167 10162 10161 10158 ] final -103.31 input  -65.29 | X-H torsion
[ 10718 10713 10712 10709 ] final  121.09 input   66.30 | X-H torsion
[ 10763 10752 10751 10750 ] final    3.34 input  -60.55 | X-H torsion
[ 11005 11000 10999 10996 ] final  -55.58 input  -57.11 | X-H torsion

> <Gold.Protein.ActiveResidues>
 VAL166  LYS551  ARG553  GLY616  TRP617  ASP618  TYR619  PRO620  LYS621  CYS622 
 ASP623  PHE694  ASN695  SER759  ASP760  ASP761  ALA762  ILE779  LEU786  VAL792 
 PHE793  MET794  SER795  GLU796  ALA797  LYS798  CYS799  TRP800  GLU811  SER814 

> <Gold.Protein.RotatedAtoms>
  150.6887  134.2349  159.4449 H   0  0  0  0  0  0  0  0  0  0  0  0  # atno 6907 bound_to 6896
  152.0297  134.9772  160.0581 H   0  0  0  0  0  0  0  0  0  0  0  0  # atno 6908 bound_to 6896
  152.1316  133.4376  159.4760 H   0  0  0  0  0  0  0  0  0  0  0  0  # atno 6909 bound_to 6896
  144.9881  139.4434  143.5353 H   0  0  0  0  0  0  0  0  0  0  0  0  # atno 7974 bound_to 7965
  154.9164  140.0408  157.1974 H   0  0  0  0  0  0  0  0  0  0  0  0  # atno 8008 bound_to 7997
  154.8297  140.2897  155.5709 H   0  0  0  0  0  0  0  0  0  0  0  0  # atno 8009 bound_to 7997
  156.2986  140.2503  156.3219 H   0  0  0  0  0  0  0  0  0  0  0  0  # atno 8010 bound_to 7997
  140.2214  143.3673  152.0966 H   0  0  0  0  0  0  0  0  0  0  0  0  # atno 10167 bound_to 10162
  157.5843  131.1071  150.8125 H   0  0  0  0  0  0  0  0  0  0  0  0  # atno 10718 bound_to 10713
  153.2845  135.6943  153.7353 H   0  0  0  0  0  0  0  0  0  0  0  0  # atno 10763 bound_to 10752
  153.6327  135.3407  155.3048 H   0  0  0  0  0  0  0  0  0  0  0  0  # atno 10764 bound_to 10752
  154.8505  135.4413  154.1909 H   0  0  0  0  0  0  0  0  0  0  0  0  # atno 10765 bound_to 10752
  141.1080  133.6612  156.4490 H   0  0  0  0  0  0  0  0  0  0  0  0  # atno 11005 bound_to 11000
  146.3425  139.9196  142.8768 LP  0  0  0  0  0  0  0  0  0  0  0  0  # atno 17320 bound_to 7965
  145.2324  140.9978  143.3983 LP  0  0  0  0  0  0  0  0  0  0  0  0  # atno 17321 bound_to 7965
  139.5143  144.6945  151.5667 LP  0  0  0  0  0  0  0  0  0  0  0  0  # atno 17342 bound_to 10162
  140.6252  143.9182  150.6559 LP  0  0  0  0  0  0  0  0  0  0  0  0  # atno 17343 bound_to 10162
  156.8563  130.5098  149.5307 LP  0  0  0  0  0  0  0  0  0  0  0  0  # atno 17370 bound_to 10713
  156.0891  130.5882  150.9701 LP  0  0  0  0  0  0  0  0  0  0  0  0  # atno 17371 bound_to 10713
  140.4851  134.6628  157.5187 LP  0  0  0  0  0  0  0  0  0  0  0  0  # atno 17394 bound_to 11000
  139.9960  134.6911  155.9609 LP  0  0  0  0  0  0  0  0  0  0  0  0  # atno 17395 bound_to 11000

$$$$
