AV-unprocessed.smi:2176|AV-procd|sdf|8846|dock2
  -GOLD-   2272012 33D 1   1.00000     0.00000
 Structure written by MMmdl.
 29 30  0  0  0  0  0  0  0  0  1 V2000
  150.1604  140.8977  157.9605 O   0  0  0  0  0  0  0  0  0  0  0  0
  149.7556  141.7561  157.1752 C   0  0  0  0  0  0  0  0  0  0  0  0
  149.3881  141.3870  155.7303 C   0  0  0  0  0  0  0  0  0  0  0  0
  150.1017  140.1996  155.2372 N   0  0  0  0  0  0  0  0  0  0  0  0
  151.4195  139.9706  155.6071 C   0  0  0  0  0  0  0  0  0  0  0  0
  152.1324  138.8944  155.1983 C   0  0  0  0  0  0  0  0  0  0  0  0
  151.5272  137.8964  154.3229 C   0  0  0  0  0  0  0  0  0  0  0  0
  152.0911  136.8913  153.8964 O   0  0  0  0  0  0  0  0  0  0  0  0
  150.1996  138.1604  153.9758 N   0  0  0  0  0  0  0  0  0  0  0  0
  149.4584  139.2662  154.3953 C   0  0  0  0  0  0  0  0  0  0  0  0
  148.2903  139.4011  154.0331 O   0  0  0  0  0  0  0  0  0  0  0  0
  149.6246  143.0517  157.4993 N   0  0  0  0  0  0  0  0  0  0  0  0
  149.9285  143.6434  158.7969 C   0  0  0  0  0  0  0  0  0  0  0  0
  151.4104  143.7372  159.0949 C   0  0  0  0  0  0  0  0  0  0  0  0
  151.9859  144.9823  159.7278 C   0  0  0  0  0  0  0  0  0  0  0  0
  152.3124  144.6460  158.2927 C   0  0  0  0  0  0  0  0  0  0  0  0
  149.7377  137.4949  153.3731 H   0  0  0  0  0  0  0  0  0  0  0  0
  148.3092  141.2376  155.6498 H   0  0  0  0  0  0  0  0  0  0  0  0
  149.6062  142.2476  155.0962 H   0  0  0  0  0  0  0  0  0  0  0  0
  151.9078  140.6816  156.2585 H   0  0  0  0  0  0  0  0  0  0  0  0
  153.1559  138.7705  155.5216 H   0  0  0  0  0  0  0  0  0  0  0  0
  149.2897  143.6819  156.7851 H   0  0  0  0  0  0  0  0  0  0  0  0
  149.4907  144.6418  158.8276 H   0  0  0  0  0  0  0  0  0  0  0  0
  149.4612  143.0812  159.6065 H   0  0  0  0  0  0  0  0  0  0  0  0
  151.8484  142.7992  159.4316 H   0  0  0  0  0  0  0  0  0  0  0  0
  151.3129  145.8189  159.9057 H   0  0  0  0  0  0  0  0  0  0  0  0
  152.7741  144.8528  160.4666 H   0  0  0  0  0  0  0  0  0  0  0  0
  153.3176  144.2901  158.0749 H   0  0  0  0  0  0  0  0  0  0  0  0
  151.8569  145.2590  157.5174 H   0  0  0  0  0  0  0  0  0  0  0  0
  1  2  2  0  0  0  0
  2  3  1  0  0  0  0
  2 12  1  0  0  0  0
  3  4  1  0  0  0  0
  3 18  1  0  0  0  0
  3 19  1  0  0  0  0
  4 10  1  0  0  0  0
  4  5  1  0  0  0  0
  5  6  2  0  0  0  0
  5 20  1  0  0  0  0
  6  7  1  0  0  0  0
  6 21  1  0  0  0  0
  7  8  2  0  0  0  0
  7  9  1  0  0  0  0
  9 17  1  0  0  0  0
  9 10  1  0  0  0  0
 10 11  2  0  0  0  0
 12 13  1  0  0  0  0
 12 22  1  0  0  0  0
 13 14  1  0  0  0  0
 13 23  1  0  0  0  0
 13 24  1  0  0  0  0
 14 16  1  0  0  0  0
 14 15  1  0  0  0  0
 14 25  1  0  0  0  0
 15 16  1  0  0  0  0
 15 26  1  0  0  0  0
 15 27  1  0  0  0  0
 16 28  1  0  0  0  0
 16 29  1  0  0  0  0
M  END
> <s_m_source_file>
AV-unprocessed.smi

> <i_m_source_file_index>
2176

> <i_lp_mmshare_version>
43012

> <i_f3d_flags>
0

> <s_epik_input>
W0NIMl0xW0NIMl1bQ0hdMVtDSDJdW05IXUMoPU8pW0NIMl1uMltjSF1bY0hdYyg9TylbbkhdYzI9Tw==

> <s_epik_cmdline>
J2VwaWtfcHl0aG9uJywgJy1waCcsICc3LjAnLCAnLXRuJywgJzgnLCAnLW1hJywgJzIwMCcsICctbWV0YWxfYmluZGluZycsICctaW1hZScsICc8aW5maWxlLm1hZT4nLCAnLW9tYWUnLCAnPG91dGZpbGUubWFlPic=

> <r_lp_tautomer_probability>
0.999537

> <r_epik_Ionization_Penalty>
0.00328917

> <r_epik_Ionization_Penalty_Charging>
0.00328916

> <r_epik_Ionization_Penalty_Neutral>
1.93017e-08

> <r_epik_State_Penalty>
0.00232387

> <r_epik_Charging_Adjusted_Penalty>
0.00561303

> <i_epik_Tot_Q>
0

> <i_epik_Tot_abs_Q>
0

> <r_epik_Metal_State_Penalty>
0.365274

> <b_epik_Metal_Only>
0

> <s_lp_Force_Field>
OPLS_2005

> <r_lp_Energy>
12.7002

> <b_lp_Chiralities_Consistent>
1

> <s_lp_Variant>
AV-unprocessed.smi:2176-1

> <Gold.Version>
5.8.1

> <Gold.Id.Protein>
6NUR|6NUR_protein|mol2

> <Gold.PLP.Fitness>
40.5391

> <Gold.PLP.PLP>
-33.5431

> <Gold.PLP.part.hbond>
-2.5981

> <Gold.PLP.part.metal>
0.0000

> <Gold.PLP.part.buried>
-5.6831

> <Gold.PLP.part.nonpolar>
-30.2290

> <Gold.PLP.part.repulsive>
2.9117

> <Gold.PLP.ligand.clash>
0.0000

> <Gold.PLP.ligand.torsion>
1.0678

> <Gold.PLP.Chemscore.Hbond>
2.8613

> <Gold.PLP.Chemscore.CHOScore>
0.0000

> <Gold.PLP.Chemscore.Metal>
0.0000

> <Gold.Chemscore.Hbonds>
donor molecule, donor type, donor heavy atom, donor atom, acceptor molecule, acceptor atom, score
      L1  H     9    17       P1  7948  0.88
      L1  H    12    22       P1  8028  1.00
      P1  H 10752 10764       L1     8  0.99

> <Gold.PLP.Chemscore.Internal.Correction>
0.5478

> <Gold.Rescore>
     Score         DG    S(hbond)    S(metal)    S(lipo)     H(rot)  DE(clash)    DE(int)     intcor
     14.13     -17.93       2.93        0.00      67.32       2.04       1.60       2.20       ----

> <Gold.Chemscore.Fitness>
14.1269

> <Gold.Chemscore.DG>
-17.9258

> <Gold.Chemscore.ZeroCoef>
-5.4800

> <Gold.Chemscore.Hbond>
2.9280

> <Gold.Chemscore.Metal>
0.0000

> <Gold.Chemscore.Lipo>
67.3181

> <Gold.Chemscore.Internal_Hbond>
0.0000

> <Gold.Chemscore.DEClash>
1.5955

> <Gold.Chemscore.DEInternal>
2.2034

> <Gold.Chemscore.Rot>
2.0351

> <Gold.Chemscore.Internal.Correction>
   9.000000E+99

> <Gold.Chemscore.Hbonds>
donor molecule, donor type, donor heavy atom, donor atom, acceptor molecule, acceptor atom, score
      L1  H     9    17       P1  7948  0.59
      L1  H    12    22       P1  8028  0.88
      P1  H 10752 10764       L1     8  0.89

> <Gold.Chemscore.Hbond.Weighted>
-9.7794

> <Gold.Chemscore.Metal.Weighted>
-0.0000

> <Gold.Chemscore.Lipo.Weighted>
-7.8762

> <Gold.Chemscore.Internal_Hbond.Weighted>
0.0000

> <Gold.Chemscore.DEClash.Weighted>
1.5955

> <Gold.Chemscore.DEInternal.Weighted>
2.2034

> <Gold.Chemscore.Rot.Weighted>
5.2098

> <Gold.Chemscore.Internal.Correction.Weighted>
   9.000000E+99

> <Gold.Protein.RotatedTorsions>
[ 6907 6896 6895 6894 ] final   -1.52 input  -60.11 | X-H torsion
[ 7974 7965 7964 7962 ] final -133.47 input  175.53 | X-H torsion
[ 8008 7997 7996 7995 ] final -124.38 input   59.86 | X-H torsion
[ 10167 10162 10161 10158 ] final   46.85 input  -65.29 | X-H torsion
[ 10718 10713 10712 10709 ] final -134.62 input   66.30 | X-H torsion
[ 10763 10752 10751 10750 ] final  -79.65 input  -60.55 | X-H torsion
[ 11005 11000 10999 10996 ] final   32.57 input  -57.11 | X-H torsion

> <Gold.Protein.ActiveResidues>
 VAL166  LYS551  ARG553  GLY616  TRP617  ASP618  TYR619  PRO620  LYS621  CYS622 
 ASP623  PHE694  ASN695  SER759  ASP760  ASP761  ALA762  ILE779  LEU786  VAL792 
 PHE793  MET794  SER795  GLU796  ALA797  LYS798  CYS799  TRP800  GLU811  SER814 

> <Gold.Protein.RotatedAtoms>
  151.5447  135.1068  159.9934 H   0  0  0  0  0  0  0  0  0  0  0  0  # atno 6907 bound_to 6896
  152.4519  133.7642  159.6774 H   0  0  0  0  0  0  0  0  0  0  0  0  # atno 6908 bound_to 6896
  150.8450  133.7809  159.3071 H   0  0  0  0  0  0  0  0  0  0  0  0  # atno 6909 bound_to 6896
  144.9190  140.6991  143.4977 H   0  0  0  0  0  0  0  0  0  0  0  0  # atno 7974 bound_to 7965
  155.1959  140.0414  157.2908 H   0  0  0  0  0  0  0  0  0  0  0  0  # atno 8008 bound_to 7997
  154.6107  140.2476  155.7644 H   0  0  0  0  0  0  0  0  0  0  0  0  # atno 8009 bound_to 7997
  156.2377  140.2915  156.0368 H   0  0  0  0  0  0  0  0  0  0  0  0  # atno 8010 bound_to 7997
  140.3097  144.2835  150.6202 H   0  0  0  0  0  0  0  0  0  0  0  0  # atno 10167 bound_to 10162
  156.2574  130.7189  151.1111 H   0  0  0  0  0  0  0  0  0  0  0  0  # atno 10718 bound_to 10713
  154.5413  135.5688  153.6842 H   0  0  0  0  0  0  0  0  0  0  0  0  # atno 10763 bound_to 10752
  152.9964  135.6228  154.2498 H   0  0  0  0  0  0  0  0  0  0  0  0  # atno 10764 bound_to 10752
  154.2429  135.2862  155.2826 H   0  0  0  0  0  0  0  0  0  0  0  0  # atno 10765 bound_to 10752
  140.2721  134.3071  155.7825 H   0  0  0  0  0  0  0  0  0  0  0  0  # atno 11005 bound_to 11000
  145.3327  139.1755  143.4528 LP  0  0  0  0  0  0  0  0  0  0  0  0  # atno 17320 bound_to 7965
  146.3196  140.3359  142.8644 LP  0  0  0  0  0  0  0  0  0  0  0  0  # atno 17321 bound_to 7965
  140.5579  143.2196  151.7816 LP  0  0  0  0  0  0  0  0  0  0  0  0  # atno 17342 bound_to 10162
  139.4896  144.4388  151.9788 LP  0  0  0  0  0  0  0  0  0  0  0  0  # atno 17343 bound_to 10162
  157.7238  131.0664  150.6022 LP  0  0  0  0  0  0  0  0  0  0  0  0  # atno 17370 bound_to 10713
  156.6107  130.4379  149.5860 LP  0  0  0  0  0  0  0  0  0  0  0  0  # atno 17371 bound_to 10713
  141.2176  133.7473  156.9350 LP  0  0  0  0  0  0  0  0  0  0  0  0  # atno 17394 bound_to 11000
  140.1364  134.9322  157.2407 LP  0  0  0  0  0  0  0  0  0  0  0  0  # atno 17395 bound_to 11000

$$$$
