AV-unprocessed.smi:787|AV-procd|sdf|3726|dock10
  -GOLD-   22720 1153D 1   1.00000     0.00000
 Structure written by MMmdl.
 47 49  0  0  0  0  0  0  0  0  2 V2000
  149.6940  136.8021  159.6410 C   0  0  0  0  0  0  0  0  0  0  0  0
  149.6323  137.1714  158.2359 N   0  0  0  0  0  0  0  0  0  0  0  0
  150.7022  137.8406  157.6243 C   0  0  0  0  0  0  0  0  0  0  0  0
  151.9257  137.8321  158.2010 N   0  0  0  0  0  0  0  0  0  0  0  0
  152.9169  138.4817  157.5758 C   0  0  0  0  0  0  0  0  0  0  0  0
  152.8832  139.1669  156.4219 N   0  0  0  0  0  0  0  0  0  0  0  0
  151.6745  139.1833  155.8441 C   0  0  0  0  0  0  0  0  0  0  0  0
  151.3474  139.8118  154.6545 N   0  0  0  0  0  0  0  0  0  0  0  0
  150.0526  139.5255  154.5425 C   0  0  0  0  0  0  0  0  0  0  0  0
  149.4928  138.7885  155.5223 N   0  0  0  0  0  0  0  0  0  0  0  0
  148.1074  138.3651  155.6126 C   0  0  0  0  0  0  0  0  0  0  0  0
  147.8376  137.0741  154.8111 C   0  0  1  0  0  0  0  0  0  0  0  0
  147.6509  137.4030  153.4497 O   0  0  0  0  0  0  0  0  0  0  0  0
  148.9951  136.0638  154.9109 C   0  0  0  0  0  0  0  0  0  0  0  0
  148.7393  134.8495  154.0915 N   0  3  1  0  0  0  0  0  0  0  0  0
  149.7504  133.7890  154.3078 C   0  0  0  0  0  0  0  0  0  0  0  0
  147.3545  134.3313  154.2117 C   0  0  0  0  0  0  0  0  0  0  0  0
  146.7693  133.9800  152.8547 C   0  0  0  0  0  0  0  0  0  0  0  0
  147.1173  132.7625  152.2322 C   0  0  0  0  0  0  0  0  0  0  0  0
  146.5900  132.4382  150.9672 C   0  0  0  0  0  0  0  0  0  0  0  0
  145.7097  133.3277  150.3217 C   0  0  0  0  0  0  0  0  0  0  0  0
  145.3566  134.5418  150.9415 C   0  0  0  0  0  0  0  0  0  0  0  0
  145.8841  134.8675  152.2060 C   0  0  0  0  0  0  0  0  0  0  0  0
  150.5367  138.5321  156.4080 C   0  0  0  0  0  0  0  0  0  0  0  0
  148.7744  136.2954  159.9338 H   0  0  0  0  0  0  0  0  0  0  0  0
  149.8112  137.6867  160.2680 H   0  0  0  0  0  0  0  0  0  0  0  0
  150.5298  136.1270  159.8274 H   0  0  0  0  0  0  0  0  0  0  0  0
  148.8093  136.9419  157.7004 H   0  0  0  0  0  0  0  0  0  0  0  0
  153.8771  138.4495  158.0690 H   0  0  0  0  0  0  0  0  0  0  0  0
  149.4753  139.8775  153.6997 H   0  0  0  0  0  0  0  0  0  0  0  0
  147.8474  138.2255  156.6632 H   0  0  0  0  0  0  0  0  0  0  0  0
  147.4838  139.1834  155.2524 H   0  0  0  0  0  0  0  0  0  0  0  0
  146.9135  136.6095  155.1541 H   0  0  0  0  0  0  0  0  0  0  0  0
  148.3869  137.0748  152.9553 H   0  0  0  0  0  0  0  0  0  0  0  0
  149.9352  136.5186  154.5933 H   0  0  0  0  0  0  0  0  0  0  0  0
  149.1323  135.8052  155.9609 H   0  0  0  0  0  0  0  0  0  0  0  0
  149.6833  133.3858  155.3192 H   0  0  0  0  0  0  0  0  0  0  0  0
  150.7613  134.1679  154.1592 H   0  0  0  0  0  0  0  0  0  0  0  0
  149.6044  132.9695  153.6034 H   0  0  0  0  0  0  0  0  0  0  0  0
  147.3489  133.4228  154.8162 H   0  0  0  0  0  0  0  0  0  0  0  0
  146.7259  135.0564  154.7316 H   0  0  0  0  0  0  0  0  0  0  0  0
  147.7936  132.0760  152.7205 H   0  0  0  0  0  0  0  0  0  0  0  0
  146.8602  131.5067  150.4915 H   0  0  0  0  0  0  0  0  0  0  0  0
  145.3040  133.0783  149.3521 H   0  0  0  0  0  0  0  0  0  0  0  0
  144.6804  135.2234  150.4464 H   0  0  0  0  0  0  0  0  0  0  0  0
  145.6088  135.8020  152.6730 H   0  0  0  0  0  0  0  0  0  0  0  0
  148.8303  135.1359  153.1276 H   0  0  0  0  0  0  0  0  0  0  0  0
  1  2  1  0  0  0  0
  1 25  1  0  0  0  0
  1 26  1  0  0  0  0
  1 27  1  0  0  0  0
  2  3  1  0  0  0  0
  2 28  1  0  0  0  0
  3 24  1  0  0  0  0
  3  4  2  0  0  0  0
  4  5  1  0  0  0  0
  5  6  2  0  0  0  0
  5 29  1  0  0  0  0
  6  7  1  0  0  0  0
  7 24  2  0  0  0  0
  7  8  1  0  0  0  0
  8  9  2  0  0  0  0
  9 10  1  0  0  0  0
  9 30  1  0  0  0  0
 10 11  1  0  0  0  0
 10 24  1  0  0  0  0
 11 12  1  0  0  0  0
 11 31  1  0  0  0  0
 11 32  1  0  0  0  0
 12 13  1  0  0  0  0
 12 14  1  0  0  0  0
 12 33  1  0  0  0  0
 13 34  1  0  0  0  0
 14 15  1  0  0  0  0
 14 35  1  0  0  0  0
 14 36  1  0  0  0  0
 15 16  1  0  0  0  0
 15 17  1  0  0  0  0
 15 47  1  0  0  0  0
 16 37  1  0  0  0  0
 16 38  1  0  0  0  0
 16 39  1  0  0  0  0
 17 18  1  0  0  0  0
 17 40  1  0  0  0  0
 17 41  1  0  0  0  0
 18 23  1  0  0  0  0
 18 19  2  0  0  0  0
 19 20  1  0  0  0  0
 19 42  1  0  0  0  0
 20 21  2  0  0  0  0
 20 43  1  0  0  0  0
 21 22  1  0  0  0  0
 21 44  1  0  0  0  0
 22 23  2  0  0  0  0
 22 45  1  0  0  0  0
 23 46  1  0  0  0  0
M  CHG  1  15   1
M  END
> <s_m_source_file>
AV-unprocessed.smi

> <i_m_source_file_index>
787

> <i_lp_mmshare_version>
43012

> <i_f3d_flags>
0

> <s_epik_input>
bjFbY0hdbmMoW05IXVtDSDNdKWMoYzEyKW4oW2NIXW4yKVtDSDJdW0NASF0oW09IXSlbQ0gyXU4oW0NIM10pW0NIMl1jM1tjSF1bY0hdW2NIXVtjSF1bY0hdMw==

> <s_epik_cmdline>
J2VwaWtfcHl0aG9uJywgJy1waCcsICc3LjAnLCAnLXRuJywgJzgnLCAnLW1hJywgJzIwMCcsICctbWV0YWxfYmluZGluZycsICctaW1hZScsICc8aW5maWxlLm1hZT4nLCAnLW9tYWUnLCAnPG91dGZpbGUubWFlPic=

> <r_lp_tautomer_probability>
0.999987

> <r_epik_Ionization_Penalty>
0.0526284

> <r_epik_Ionization_Penalty_Charging>
0.0475377

> <r_epik_Ionization_Penalty_Neutral>
0.00509065

> <r_epik_State_Penalty>
0.0404888

> <r_epik_Charging_Adjusted_Penalty>
0.0880265

> <i_epik_Tot_Q>
1

> <i_epik_Tot_abs_Q>
1

> <r_epik_Metal_State_Penalty>
0.040507

> <b_epik_Metal_Only>
0

> <s_lp_Force_Field>
OPLS_2005

> <r_lp_Energy>
14.3877

> <b_lp_Chiralities_Consistent>
1

> <s_lp_Variant>
AV-unprocessed.smi:787-2

> <Gold.Version>
5.8.1

> <Gold.Id.Protein>
6NUR|6NUR_protein|mol2

> <Gold.PLP.Fitness>
44.4629

> <Gold.PLP.PLP>
-29.3515

> <Gold.PLP.part.hbond>
-3.9175

> <Gold.PLP.part.metal>
0.0000

> <Gold.PLP.part.buried>
-3.1596

> <Gold.PLP.part.nonpolar>
-22.9176

> <Gold.PLP.part.repulsive>
0.2015

> <Gold.PLP.ligand.clash>
0.0000

> <Gold.PLP.ligand.torsion>
1.5499

> <Gold.PLP.Chemscore.Hbond>
5.0000

> <Gold.PLP.Chemscore.CHOScore>
1.0000

> <Gold.PLP.Chemscore.Metal>
0.0000

> <Gold.Chemscore.Hbonds>
donor molecule, donor type, donor heavy atom, donor atom, acceptor molecule, acceptor atom, score
      L1  H    13    34       P1  7948  0.89
      L1  H    15    47       P1  7948  2.00
      P1  H  7989  7998       L1     8  1.00
      P1  H  7997  8010       L1     6  1.00
      L1  C     9    30       P1  7957  0.96

> <Gold.PLP.Chemscore.Internal.Correction>
0.2111

> <Gold.Rescore>
     Score         DG    S(hbond)    S(metal)    S(lipo)     H(rot)  DE(clash)    DE(int)     intcor
     13.72     -15.22       3.51        0.00      53.06       3.19       0.14       1.36       ----

> <Gold.Chemscore.Fitness>
13.7234

> <Gold.Chemscore.DG>
-15.2209

> <Gold.Chemscore.ZeroCoef>
-5.4800

> <Gold.Chemscore.Hbond>
3.5051

> <Gold.Chemscore.Metal>
0.0000

> <Gold.Chemscore.Lipo>
53.0563

> <Gold.Chemscore.Internal_Hbond>
0.0000

> <Gold.Chemscore.DEClash>
0.1399

> <Gold.Chemscore.DEInternal>
1.3576

> <Gold.Chemscore.Rot>
3.1928

> <Gold.Chemscore.Internal.Correction>
   9.000000E+99

> <Gold.Chemscore.Hbonds>
donor molecule, donor type, donor heavy atom, donor atom, acceptor molecule, acceptor atom, score
      L1  H    13    34       P1  7948  0.82
      L1  H    15    47       P1  7948  0.44
      P1  H  7989  7998       L1     8  0.49
      P1  H  7997  8010       L1     6  0.81

> <Gold.Chemscore.Hbond.Weighted>
-11.7069

> <Gold.Chemscore.Metal.Weighted>
-0.0000

> <Gold.Chemscore.Lipo.Weighted>
-6.2076

> <Gold.Chemscore.Internal_Hbond.Weighted>
0.0000

> <Gold.Chemscore.DEClash.Weighted>
0.1399

> <Gold.Chemscore.DEInternal.Weighted>
1.3576

> <Gold.Chemscore.Rot.Weighted>
8.1736

> <Gold.Chemscore.Internal.Correction.Weighted>
   9.000000E+99

> <Gold.Protein.RotatedTorsions>
[ 6907 6896 6895 6894 ] final  -28.13 input  -60.11 | X-H torsion
[ 7974 7965 7964 7962 ] final -158.75 input  175.53 | X-H torsion
[ 8008 7997 7996 7995 ] final   87.59 input   59.86 | X-H torsion
[ 10167 10162 10161 10158 ] final -135.22 input  -65.29 | X-H torsion
[ 10718 10713 10712 10709 ] final   92.66 input   66.30 | X-H torsion
[ 10763 10752 10751 10750 ] final -142.43 input  -60.55 | X-H torsion
[ 11005 11000 10999 10996 ] final  171.84 input  -57.11 | X-H torsion

> <Gold.Protein.ActiveResidues>
 VAL166  LYS551  ARG553  GLY616  TRP617  ASP618  TYR619  PRO620  LYS621  CYS622 
 ASP623  PHE694  ASN695  SER759  ASP760  ASP761  ALA762  ILE779  LEU786  VAL792 
 PHE793  MET794  SER795  GLU796  ALA797  LYS798  CYS799  TRP800  GLU811  SER814 

> <Gold.Protein.RotatedAtoms>
  151.1372  135.0161  159.8608 H   0  0  0  0  0  0  0  0  0  0  0  0  # atno 6907 bound_to 6896
  152.5452  134.1541  159.8541 H   0  0  0  0  0  0  0  0  0  0  0  0  # atno 6908 bound_to 6896
  151.1613  133.4797  159.2627 H   0  0  0  0  0  0  0  0  0  0  0  0  # atno 6909 bound_to 6896
  144.7493  140.3783  143.6060 H   0  0  0  0  0  0  0  0  0  0  0  0  # atno 7974 bound_to 7965
  155.9773  140.3380  155.6630 H   0  0  0  0  0  0  0  0  0  0  0  0  # atno 8008 bound_to 7997
  155.6595  140.0714  157.2577 H   0  0  0  0  0  0  0  0  0  0  0  0  # atno 8009 bound_to 7997
  154.4182  140.1711  156.1749 H   0  0  0  0  0  0  0  0  0  0  0  0  # atno 8010 bound_to 7997
  139.8801  143.6849  152.2628 H   0  0  0  0  0  0  0  0  0  0  0  0  # atno 10167 bound_to 10162
  157.6958  131.0451  150.3915 H   0  0  0  0  0  0  0  0  0  0  0  0  # atno 10718 bound_to 10713
  154.8509  135.3496  154.6026 H   0  0  0  0  0  0  0  0  0  0  0  0  # atno 10763 bound_to 10752
  153.6635  135.6988  153.5174 H   0  0  0  0  0  0  0  0  0  0  0  0  # atno 10764 bound_to 10752
  153.2799  135.4267  155.1026 H   0  0  0  0  0  0  0  0  0  0  0  0  # atno 10765 bound_to 10752
  140.3233  134.7419  157.4080 H   0  0  0  0  0  0  0  0  0  0  0  0  # atno 11005 bound_to 11000
  145.7004  139.1660  143.2596 LP  0  0  0  0  0  0  0  0  0  0  0  0  # atno 17320 bound_to 7965
  146.1419  140.7045  142.9363 LP  0  0  0  0  0  0  0  0  0  0  0  0  # atno 17321 bound_to 7965
  139.7204  144.7604  151.0965 LP  0  0  0  0  0  0  0  0  0  0  0  0  # atno 17342 bound_to 10162
  140.7746  143.5215  150.9530 LP  0  0  0  0  0  0  0  0  0  0  0  0  # atno 17343 bound_to 10162
  156.4318  130.3973  149.6755 LP  0  0  0  0  0  0  0  0  0  0  0  0  # atno 17370 bound_to 10713
  156.3970  130.7656  151.2661 LP  0  0  0  0  0  0  0  0  0  0  0  0  # atno 17371 bound_to 10713
  140.0923  134.5584  155.8432 LP  0  0  0  0  0  0  0  0  0  0  0  0  # atno 17394 bound_to 11000
  141.2081  133.6670  156.6350 LP  0  0  0  0  0  0  0  0  0  0  0  0  # atno 17395 bound_to 11000

$$$$
