AV-unprocessed.smi:266|AV-procd|sdf|2036|dock3
  -GOLD-   2262021243D 1   1.00000     0.00000
 Structure written by MMmdl.
 52 55  0  0  0  0  0  0  0  0  1 V2000
  149.1931  143.5821  159.3965 C   0  0  0  0  0  0  0  0  0  0  0  0
  150.3908  144.1673  158.6312 C   0  0  1  0  0  0  0  0  0  0  0  0
  150.9300  145.2745  159.3406 O   0  0  0  0  0  0  0  0  0  0  0  0
  152.2498  145.4751  158.8704 C   0  0  0  0  0  0  0  0  0  0  0  0
  152.7970  144.0558  158.8126 C   0  0  0  0  0  0  0  0  0  0  0  0
  151.5915  143.2189  158.3667 C   0  0  1  0  0  0  0  0  0  0  0  0
  151.5324  142.0594  159.1801 O   0  0  0  0  0  0  0  0  0  0  0  0
  151.6391  142.7791  156.8796 C   0  0  0  0  0  0  0  0  0  0  0  0
  150.7781  141.6501  156.5550 N   0  0  0  0  0  0  0  0  0  0  0  0
  149.4099  141.5940  156.6919 C   0  0  0  0  0  0  0  0  0  0  0  0
  148.8611  140.4649  156.3382 N   0  0  0  0  0  0  0  0  0  0  0  0
  149.9320  139.6689  155.9470 C   0  0  0  0  0  0  0  0  0  0  0  0
  150.0637  138.3345  155.4601 C   0  0  0  0  0  0  0  0  0  0  0  0
  149.0449  137.4613  155.2652 N   0  0  0  0  0  0  0  0  0  0  0  0
  147.9271  138.0420  154.5325 C   0  0  0  0  0  0  0  0  0  0  0  0
  148.7345  136.4694  156.2945 C   0  0  0  0  0  0  0  0  0  0  0  0
  147.5657  136.8735  157.2257 C   0  0  1  0  0  0  0  0  0  0  0  0
  146.9587  135.6306  157.9079 C   0  0  0  0  0  0  0  0  0  0  0  0
  147.8529  135.2035  159.0807 C   0  0  0  0  0  0  0  0  0  0  0  0
  148.6472  136.7376  159.6941 S   0  0  0  0  0  0  0  0  0  0  0  0
  148.0326  137.1409  160.9678 O   0  0  0  0  0  0  0  0  0  0  0  0
  150.1061  136.6012  159.5665 O   0  0  0  0  0  0  0  0  0  0  0  0
  148.0178  137.8164  158.3542 C   0  0  0  0  0  0  0  0  0  0  0  0
  151.3122  137.8985  155.1538 N   0  0  0  0  0  0  0  0  0  0  0  0
  152.3682  138.6968  155.3312 C   0  0  0  0  0  0  0  0  0  0  0  0
  152.3986  139.9497  155.7884 N   0  0  0  0  0  0  0  0  0  0  0  0
  151.1459  140.4027  156.0791 C   0  0  0  0  0  0  0  0  0  0  0  0
  148.7740  142.7230  158.8719 H   0  0  0  0  0  0  0  0  0  0  0  0
  148.4022  144.3249  159.5005 H   0  0  0  0  0  0  0  0  0  0  0  0
  149.4757  143.2623  160.3999 H   0  0  0  0  0  0  0  0  0  0  0  0
  150.0269  144.5622  157.6812 H   0  0  0  0  0  0  0  0  0  0  0  0
  152.2260  145.9293  157.8785 H   0  0  0  0  0  0  0  0  0  0  0  0
  152.8213  146.1221  159.5363 H   0  0  0  0  0  0  0  0  0  0  0  0
  153.6687  143.9779  158.1649 H   0  0  0  0  0  0  0  0  0  0  0  0
  153.1169  143.7697  159.8163 H   0  0  0  0  0  0  0  0  0  0  0  0
  152.0022  142.2297  159.9821 H   0  0  0  0  0  0  0  0  0  0  0  0
  151.3609  143.6139  156.2344 H   0  0  0  0  0  0  0  0  0  0  0  0
  152.6596  142.5103  156.6030 H   0  0  0  0  0  0  0  0  0  0  0  0
  148.8255  142.4249  157.0601 H   0  0  0  0  0  0  0  0  0  0  0  0
  148.2184  138.2835  153.5098 H   0  0  0  0  0  0  0  0  0  0  0  0
  147.5790  138.9551  155.0169 H   0  0  0  0  0  0  0  0  0  0  0  0
  147.0888  137.3466  154.4812 H   0  0  0  0  0  0  0  0  0  0  0  0
  148.5298  135.5108  155.8186 H   0  0  0  0  0  0  0  0  0  0  0  0
  149.6303  136.3092  156.8950 H   0  0  0  0  0  0  0  0  0  0  0  0
  146.7868  137.3610  156.6399 H   0  0  0  0  0  0  0  0  0  0  0  0
  145.9771  135.8982  158.3011 H   0  0  0  0  0  0  0  0  0  0  0  0
  146.7978  134.8124  157.2048 H   0  0  0  0  0  0  0  0  0  0  0  0
  147.2957  134.7212  159.8837 H   0  0  0  0  0  0  0  0  0  0  0  0
  148.6390  134.5262  158.7465 H   0  0  0  0  0  0  0  0  0  0  0  0
  148.7820  138.5345  158.0560 H   0  0  0  0  0  0  0  0  0  0  0  0
  147.1660  138.3712  158.7483 H   0  0  0  0  0  0  0  0  0  0  0  0
  153.3254  138.2708  155.0691 H   0  0  0  0  0  0  0  0  0  0  0  0
  1  2  1  0  0  0  0
  1 28  1  0  0  0  0
  1 29  1  0  0  0  0
  1 30  1  0  0  0  0
  2  6  1  0  0  0  0
  2  3  1  0  0  0  0
  2 31  1  0  0  0  0
  3  4  1  0  0  0  0
  4  5  1  0  0  0  0
  4 32  1  0  0  0  0
  4 33  1  0  0  0  0
  5  6  1  0  0  0  0
  5 34  1  0  0  0  0
  5 35  1  0  0  0  0
  6  7  1  0  0  0  0
  6  8  1  0  0  0  0
  7 36  1  0  0  0  0
  8  9  1  0  0  0  0
  8 37  1  0  0  0  0
  8 38  1  0  0  0  0
  9 27  1  0  0  0  0
  9 10  1  0  0  0  0
 10 11  2  0  0  0  0
 10 39  1  0  0  0  0
 11 12  1  0  0  0  0
 12 27  2  0  0  0  0
 12 13  1  0  0  0  0
 13 14  1  0  0  0  0
 13 24  2  0  0  0  0
 14 15  1  0  0  0  0
 14 16  1  0  0  0  0
 15 40  1  0  0  0  0
 15 41  1  0  0  0  0
 15 42  1  0  0  0  0
 16 17  1  0  0  0  0
 16 43  1  0  0  0  0
 16 44  1  0  0  0  0
 17 23  1  0  0  0  0
 17 18  1  0  0  0  0
 17 45  1  0  0  0  0
 18 19  1  0  0  0  0
 18 46  1  0  0  0  0
 18 47  1  0  0  0  0
 19 20  1  0  0  0  0
 19 48  1  0  0  0  0
 19 49  1  0  0  0  0
 20 21  2  0  0  0  0
 20 22  2  0  0  0  0
 20 23  1  0  0  0  0
 23 50  1  0  0  0  0
 23 51  1  0  0  0  0
 24 25  1  0  0  0  0
 25 26  2  0  0  0  0
 25 52  1  0  0  0  0
 26 27  1  0  0  0  0
M  END
> <s_m_source_file>
AV-unprocessed.smi

> <i_m_source_file_index>
266

> <i_lp_mmshare_version>
43012

> <i_f3d_flags>
0

> <s_epik_input>
W0NIMl0xW0NIMl1PW0NAQEhdKFtDSDNdKVtDQEBdMShbT0hdKVtDSDJdbihbY0hdbjIpYyhjMjMpbltjSF1uYzNOKFtDSDNdKVtDSDJdW0NAQEhdKFtDSDJdNClbQ0gyXVtDSDJdUzQoPU8pPU8=

> <s_epik_cmdline>
J2VwaWtfcHl0aG9uJywgJy1waCcsICc3LjAnLCAnLXRuJywgJzgnLCAnLW1hJywgJzIwMCcsICctbWV0YWxfYmluZGluZycsICctaW1hZScsICc8aW5maWxlLm1hZT4nLCAnLW9tYWUnLCAnPG91dGZpbGUubWFlPic=

> <r_lp_tautomer_probability>
1

> <r_epik_Ionization_Penalty>
0.00155497

> <r_epik_Ionization_Penalty_Charging>
0

> <r_epik_Ionization_Penalty_Neutral>
0.00155497

> <r_epik_State_Penalty>
-0

> <r_epik_Charging_Adjusted_Penalty>
0

> <i_epik_Tot_Q>
0

> <i_epik_Tot_abs_Q>
0

> <r_epik_Metal_State_Penalty>
-0

> <b_epik_Metal_Only>
0

> <s_lp_Force_Field>
OPLS_2005

> <r_lp_Energy>
31.7584

> <b_lp_Chiralities_Consistent>
1

> <s_lp_Variant>
AV-unprocessed.smi:266-6

> <Gold.Version>
5.8.1

> <Gold.Id.Protein>
6NUR|6NUR_protein|mol2

> <Gold.PLP.Fitness>
44.3807

> <Gold.PLP.PLP>
-34.2512

> <Gold.PLP.part.hbond>
-4.4000

> <Gold.PLP.part.metal>
0.0000

> <Gold.PLP.part.buried>
-4.4681

> <Gold.PLP.part.nonpolar>
-26.2336

> <Gold.PLP.part.repulsive>
0.3096

> <Gold.PLP.ligand.clash>
0.0000

> <Gold.PLP.ligand.torsion>
1.9296

> <Gold.PLP.Chemscore.Hbond>
3.6640

> <Gold.PLP.Chemscore.CHOScore>
0.7913

> <Gold.PLP.Chemscore.Metal>
0.0000

> <Gold.Chemscore.Hbonds>
donor molecule, donor type, donor heavy atom, donor atom, acceptor molecule, acceptor atom, score
      P1  H  6896  6908       L1    22  0.94
      P1  H  6931  6943       L1    21  0.96
      P1  H  6934  6947       L1    21  0.68
      P1  H  7997  8010       L1    26  1.00
      L1  C    10    39       P1  8028  0.48

> <Gold.PLP.Chemscore.Internal.Correction>
0.6228

> <Gold.Rescore>
     Score         DG    S(hbond)    S(metal)    S(lipo)     H(rot)  DE(clash)    DE(int)     intcor
     14.57     -18.25       3.00        0.00      77.18       2.45       1.73       1.95       ----

> <Gold.Chemscore.Fitness>
14.5666

> <Gold.Chemscore.DG>
-18.2514

> <Gold.Chemscore.ZeroCoef>
-5.4800

> <Gold.Chemscore.Hbond>
2.9959

> <Gold.Chemscore.Metal>
0.0000

> <Gold.Chemscore.Lipo>
77.1764

> <Gold.Chemscore.Internal_Hbond>
0.0000

> <Gold.Chemscore.DEClash>
1.7328

> <Gold.Chemscore.DEInternal>
1.9521

> <Gold.Chemscore.Rot>
2.4471

> <Gold.Chemscore.Internal.Correction>
   9.000000E+99

> <Gold.Chemscore.Hbonds>
donor molecule, donor type, donor heavy atom, donor atom, acceptor molecule, acceptor atom, score
      P1  H  6896  6908       L1    22  0.82
      P1  H  6931  6943       L1    21  0.79
      P1  H  6934  6947       L1    21  0.58
      P1  H  7997  8010       L1    26  0.24

> <Gold.Chemscore.Hbond.Weighted>
-10.0063

> <Gold.Chemscore.Metal.Weighted>
-0.0000

> <Gold.Chemscore.Lipo.Weighted>
-9.0296

> <Gold.Chemscore.Internal_Hbond.Weighted>
0.0000

> <Gold.Chemscore.DEClash.Weighted>
1.7328

> <Gold.Chemscore.DEInternal.Weighted>
1.9521

> <Gold.Chemscore.Rot.Weighted>
6.2645

> <Gold.Chemscore.Internal.Correction.Weighted>
   9.000000E+99

> <Gold.Protein.RotatedTorsions>
[ 6907 6896 6895 6894 ] final -178.39 input  -60.11 | X-H torsion
[ 7974 7965 7964 7962 ] final -177.55 input  175.53 | X-H torsion
[ 8008 7997 7996 7995 ] final   95.48 input   59.86 | X-H torsion
[ 10167 10162 10161 10158 ] final   55.79 input  -65.29 | X-H torsion
[ 10718 10713 10712 10709 ] final  174.71 input   66.30 | X-H torsion
[ 10763 10752 10751 10750 ] final   13.27 input  -60.55 | X-H torsion
[ 11005 11000 10999 10996 ] final  -42.12 input  -57.11 | X-H torsion

> <Gold.Protein.ActiveResidues>
 VAL166  LYS551  ARG553  GLY616  TRP617  ASP618  TYR619  PRO620  LYS621  CYS622 
 ASP623  PHE694  ASN695  SER759  ASP760  ASP761  ALA762  ILE779  LEU786  VAL792 
 PHE793  MET794  SER795  GLU796  ALA797  LYS798  CYS799  TRP800  GLU811  SER814 

> <Gold.Protein.RotatedAtoms>
  151.6364  133.3328  159.3120 H   0  0  0  0  0  0  0  0  0  0  0  0  # atno 6907 bound_to 6896
  150.8030  134.7140  159.6630 H   0  0  0  0  0  0  0  0  0  0  0  0  # atno 6908 bound_to 6896
  152.4124  134.6106  160.0076 H   0  0  0  0  0  0  0  0  0  0  0  0  # atno 6909 bound_to 6896
  144.7128  140.1002  143.6417 H   0  0  0  0  0  0  0  0  0  0  0  0  # atno 7974 bound_to 7965
  156.0693  140.3286  155.7556 H   0  0  0  0  0  0  0  0  0  0  0  0  # atno 8008 bound_to 7997
  155.5330  140.0595  157.2902 H   0  0  0  0  0  0  0  0  0  0  0  0  # atno 8009 bound_to 7997
  154.4522  140.1924  156.0503 H   0  0  0  0  0  0  0  0  0  0  0  0  # atno 8010 bound_to 7997
  140.2157  144.3842  150.6471 H   0  0  0  0  0  0  0  0  0  0  0  0  # atno 10167 bound_to 10162
  156.9456  131.0015  151.2959 H   0  0  0  0  0  0  0  0  0  0  0  0  # atno 10718 bound_to 10713
  153.1738  135.6816  153.8571 H   0  0  0  0  0  0  0  0  0  0  0  0  # atno 10763 bound_to 10752
  153.7926  135.3167  155.3381 H   0  0  0  0  0  0  0  0  0  0  0  0  # atno 10764 bound_to 10752
  154.8015  135.4775  154.0381 H   0  0  0  0  0  0  0  0  0  0  0  0  # atno 10765 bound_to 10752
  141.0293  133.6827  156.2551 H   0  0  0  0  0  0  0  0  0  0  0  0  # atno 11005 bound_to 11000
  145.9544  139.2756  143.1193 LP  0  0  0  0  0  0  0  0  0  0  0  0  # atno 17320 bound_to 7965
  145.9288  140.9063  143.0367 LP  0  0  0  0  0  0  0  0  0  0  0  0  # atno 17321 bound_to 7965
  140.6291  143.2185  151.6533 LP  0  0  0  0  0  0  0  0  0  0  0  0  # atno 17342 bound_to 10162
  139.5163  144.3351  152.0791 LP  0  0  0  0  0  0  0  0  0  0  0  0  # atno 17343 bound_to 10162
  157.5756  130.8341  149.8451 LP  0  0  0  0  0  0  0  0  0  0  0  0  # atno 17370 bound_to 10713
  156.0385  130.3745  150.1496 LP  0  0  0  0  0  0  0  0  0  0  0  0  # atno 17371 bound_to 10713
  140.6434  134.5142  157.5571 LP  0  0  0  0  0  0  0  0  0  0  0  0  # atno 17394 bound_to 11000
  139.9197  134.8173  156.1250 LP  0  0  0  0  0  0  0  0  0  0  0  0  # atno 17395 bound_to 11000

$$$$
