AV-unprocessed.smi:2059|AV-procd|sdf|8351|dock4
  -GOLD-   2272011 23D 1   1.00000     0.00000
 Structure written by MMmdl.
 29 30  0  0  0  0  0  0  0  0  2 V2000
  146.2522  133.6189  162.5005 C   0  0  0  0  0  0  0  0  0  0  0  0
  146.8969  134.8535  161.9697 C   0  0  0  0  0  0  0  0  0  0  0  0
  146.9407  135.4146  160.7252 C   0  0  0  0  0  0  0  0  0  0  0  0
  147.7230  136.5847  160.9234 C   0  0  0  0  0  0  0  0  0  0  0  0
  148.0551  137.4784  159.9750 N   0  5  0  0  0  0  0  0  0  0  0  0
  148.8277  137.1620  158.9019 C   0  0  0  0  0  0  0  0  0  0  0  0
  149.5096  136.1398  158.8394 O   0  0  0  0  0  0  0  0  0  0  0  0
  148.8419  138.0181  157.8618 N   0  0  0  0  0  0  0  0  0  0  0  0
  149.5940  137.8557  156.6219 C   0  0  1  0  0  0  0  0  0  0  0  0
  149.0695  138.8116  155.5347 C   0  0  0  0  0  0  0  0  0  0  0  0
  150.0927  138.8674  154.3942 C   0  0  0  0  0  0  0  0  0  0  0  0
  151.7336  138.6215  155.1732 S   0  0  0  0  0  0  0  0  0  0  0  0
  152.3912  137.4663  154.5434 O   0  0  0  0  0  0  0  0  0  0  0  0
  152.4236  139.9155  155.2858 O   0  0  0  0  0  0  0  0  0  0  0  0
  151.0919  138.1393  156.8200 C   0  0  0  0  0  0  0  0  0  0  0  0
  148.1290  136.7158  162.1754 N   0  0  0  0  0  0  0  0  0  0  0  0
  147.5984  135.6123  162.8543 O   0  0  0  0  0  0  0  0  0  0  0  0
  146.7596  132.7294  162.1271 H   0  0  0  0  0  0  0  0  0  0  0  0
  145.2075  133.5664  162.1939 H   0  0  0  0  0  0  0  0  0  0  0  0
  146.2854  133.5948  163.5899 H   0  0  0  0  0  0  0  0  0  0  0  0
  146.4857  135.0487  159.8172 H   0  0  0  0  0  0  0  0  0  0  0  0
  148.2777  138.8514  157.9437 H   0  0  0  0  0  0  0  0  0  0  0  0
  149.4751  136.8346  156.2547 H   0  0  0  0  0  0  0  0  0  0  0  0
  148.0837  138.5153  155.1747 H   0  0  0  0  0  0  0  0  0  0  0  0
  148.9659  139.8121  155.9573 H   0  0  0  0  0  0  0  0  0  0  0  0
  149.9301  138.0508  153.6907 H   0  0  0  0  0  0  0  0  0  0  0  0
  150.0702  139.8098  153.8471 H   0  0  0  0  0  0  0  0  0  0  0  0
  151.2479  138.9788  157.4983 H   0  0  0  0  0  0  0  0  0  0  0  0
  151.6402  137.2778  157.2013 H   0  0  0  0  0  0  0  0  0  0  0  0
  1  2  1  0  0  0  0
  1 18  1  0  0  0  0
  1 19  1  0  0  0  0
  1 20  1  0  0  0  0
  2 17  1  0  0  0  0
  2  3  2  0  0  0  0
  3  4  1  0  0  0  0
  3 21  1  0  0  0  0
  4  5  1  0  0  0  0
  4 16  2  0  0  0  0
  5  6  1  0  0  0  0
  6  7  2  0  0  0  0
  6  8  1  0  0  0  0
  8  9  1  0  0  0  0
  8 22  1  0  0  0  0
  9 15  1  0  0  0  0
  9 10  1  0  0  0  0
  9 23  1  0  0  0  0
 10 11  1  0  0  0  0
 10 24  1  0  0  0  0
 10 25  1  0  0  0  0
 11 12  1  0  0  0  0
 11 26  1  0  0  0  0
 11 27  1  0  0  0  0
 12 13  2  0  0  0  0
 12 14  2  0  0  0  0
 12 15  1  0  0  0  0
 15 28  1  0  0  0  0
 15 29  1  0  0  0  0
 16 17  1  0  0  0  0
M  CHG  1   5  -1
M  END
> <s_m_source_file>
AV-unprocessed.smi

> <i_m_source_file_index>
2059

> <i_lp_mmshare_version>
43012

> <i_f3d_flags>
0

> <s_epik_input>
W0NIM11jMVtjSF1jKG5vMSlbTkhdQyg9TylbTkhdW0NAQEhdKFtDSDJdMilbQ0gyXVtDSDJdUzIoPU8pPU8=

> <s_epik_cmdline>
J2VwaWtfcHl0aG9uJywgJy1waCcsICc3LjAnLCAnLXRuJywgJzgnLCAnLW1hJywgJzIwMCcsICctbWV0YWxfYmluZGluZycsICctaW1hZScsICc8aW5maWxlLm1hZT4nLCAnLW9tYWUnLCAnPG91dGZpbGUubWFlPic=

> <r_lp_tautomer_probability>
1

> <r_epik_Ionization_Penalty>
6.15571

> <r_epik_Ionization_Penalty_Charging>
6.1556

> <r_epik_Ionization_Penalty_Neutral>
0.000110918

> <r_epik_State_Penalty>
6.15558

> <r_epik_Charging_Adjusted_Penalty>
12.3112

> <i_epik_Tot_Q>
-1

> <i_epik_Tot_abs_Q>
1

> <r_epik_Metal_State_Penalty>
2.1059

> <b_epik_Metal_Only>
1

> <s_lp_Force_Field>
OPLS_2005

> <r_lp_Energy>
-1.66836

> <b_lp_Chiralities_Consistent>
1

> <s_lp_Variant>
AV-unprocessed.smi:2059-4

> <Gold.Version>
5.8.1

> <Gold.Id.Protein>
6NUR|6NUR_protein|mol2

> <Gold.PLP.Fitness>
39.5982

> <Gold.PLP.PLP>
-27.0369

> <Gold.PLP.part.hbond>
-6.8089

> <Gold.PLP.part.metal>
0.0000

> <Gold.PLP.part.buried>
-5.4682

> <Gold.PLP.part.nonpolar>
-16.1197

> <Gold.PLP.part.repulsive>
0.1840

> <Gold.PLP.ligand.clash>
0.0000

> <Gold.PLP.ligand.torsion>
0.8529

> <Gold.PLP.Chemscore.Hbond>
4.7547

> <Gold.PLP.Chemscore.CHOScore>
0.0000

> <Gold.PLP.Chemscore.Metal>
0.0000

> <Gold.Chemscore.Hbonds>
donor molecule, donor type, donor heavy atom, donor atom, acceptor molecule, acceptor atom, score
      P1  H  6896  6907       L1     7  0.94
      P1  H  6931  6943       L1    16  0.85
      P1  H  6934  6947       L1     5  0.94
      P1  H  7989  7998       L1    14  0.46
      P1  H  7997  8010       L1    14  0.78
      P1  H 10752 10765       L1    13  0.67

> <Gold.PLP.Chemscore.Internal.Correction>
0.0031

> <Gold.Rescore>
     Score         DG    S(hbond)    S(metal)    S(lipo)     H(rot)  DE(clash)    DE(int)     intcor
     16.48     -17.24       2.95        0.00      38.16       1.00       0.04       0.72       ----

> <Gold.Chemscore.Fitness>
16.4804

> <Gold.Chemscore.DG>
-17.2356

> <Gold.Chemscore.ZeroCoef>
-5.4800

> <Gold.Chemscore.Hbond>
2.9492

> <Gold.Chemscore.Metal>
0.0000

> <Gold.Chemscore.Lipo>
38.1639

> <Gold.Chemscore.Internal_Hbond>
0.0000

> <Gold.Chemscore.DEClash>
0.0354

> <Gold.Chemscore.DEInternal>
0.7199

> <Gold.Chemscore.Rot>
1.0000

> <Gold.Chemscore.Internal.Correction>
   9.000000E+99

> <Gold.Chemscore.Hbonds>
donor molecule, donor type, donor heavy atom, donor atom, acceptor molecule, acceptor atom, score
      P1  H  6896  6907       L1     7  0.90
      P1  H  6931  6943       L1    16  0.15
      P1  H  6934  6947       L1     5  0.06
      P1  H  7989  7998       L1    14  0.12
      P1  H  7997  8010       L1    14  0.76
      P1  H 10752 10765       L1    13  0.68

> <Gold.Chemscore.Hbond.Weighted>
-9.8505

> <Gold.Chemscore.Metal.Weighted>
-0.0000

> <Gold.Chemscore.Lipo.Weighted>
-4.4652

> <Gold.Chemscore.Internal_Hbond.Weighted>
0.0000

> <Gold.Chemscore.DEClash.Weighted>
0.0354

> <Gold.Chemscore.DEInternal.Weighted>
0.7199

> <Gold.Chemscore.Rot.Weighted>
2.5600

> <Gold.Chemscore.Internal.Correction.Weighted>
   9.000000E+99

> <Gold.Protein.RotatedTorsions>
[ 6907 6896 6895 6894 ] final  -68.05 input  -60.11 | X-H torsion
[ 7974 7965 7964 7962 ] final  -39.15 input  175.53 | X-H torsion
[ 8008 7997 7996 7995 ] final   96.84 input   59.86 | X-H torsion
[ 10167 10162 10161 10158 ] final -103.94 input  -65.29 | X-H torsion
[ 10718 10713 10712 10709 ] final  136.81 input   66.30 | X-H torsion
[ 10763 10752 10751 10750 ] final  160.42 input  -60.55 | X-H torsion
[ 11005 11000 10999 10996 ] final    9.49 input  -57.11 | X-H torsion

> <Gold.Protein.ActiveResidues>
 VAL166  LYS551  ARG553  GLY616  TRP617  ASP618  TYR619  PRO620  LYS621  CYS622 
 ASP623  PHE694  ASN695  SER759  ASP760  ASP761  ALA762  ILE779  LEU786  VAL792 
 PHE793  MET794  SER795  GLU796  ALA797  LYS798  CYS799  TRP800  GLU811  SER814 

> <Gold.Protein.RotatedAtoms>
  150.7377  134.5794  159.5930 H   0  0  0  0  0  0  0  0  0  0  0  0  # atno 6907 bound_to 6896
  152.3212  134.7375  160.0322 H   0  0  0  0  0  0  0  0  0  0  0  0  # atno 6908 bound_to 6896
  151.7890  133.3321  159.3530 H   0  0  0  0  0  0  0  0  0  0  0  0  # atno 6909 bound_to 6896
  146.0422  140.6593  142.9081 H   0  0  0  0  0  0  0  0  0  0  0  0  # atno 7974 bound_to 7965
  156.0839  140.3267  155.7729 H   0  0  0  0  0  0  0  0  0  0  0  0  # atno 8008 bound_to 7997
  155.5108  140.0577  157.2941 H   0  0  0  0  0  0  0  0  0  0  0  0  # atno 8009 bound_to 7997
  154.4598  140.1961  156.0294 H   0  0  0  0  0  0  0  0  0  0  0  0  # atno 8010 bound_to 7997
  140.2146  143.3721  152.1022 H   0  0  0  0  0  0  0  0  0  0  0  0  # atno 10167 bound_to 10162
  157.4428  131.1059  151.0124 H   0  0  0  0  0  0  0  0  0  0  0  0  # atno 10718 bound_to 10713
  154.2472  135.2773  155.2831 H   0  0  0  0  0  0  0  0  0  0  0  0  # atno 10763 bound_to 10752
  154.5496  135.5679  153.6913 H   0  0  0  0  0  0  0  0  0  0  0  0  # atno 10764 bound_to 10752
  152.9988  135.6271  154.2617 H   0  0  0  0  0  0  0  0  0  0  0  0  # atno 10765 bound_to 10752
  140.5251  134.0521  155.7856 H   0  0  0  0  0  0  0  0  0  0  0  0  # atno 11005 bound_to 11000
  144.7080  140.3929  143.7103 LP  0  0  0  0  0  0  0  0  0  0  0  0  # atno 17320 bound_to 7965
  145.6865  139.1629  143.2671 LP  0  0  0  0  0  0  0  0  0  0  0  0  # atno 17321 bound_to 7965
  139.5167  144.6981  151.5572 LP  0  0  0  0  0  0  0  0  0  0  0  0  # atno 17342 bound_to 10162
  140.6299  143.9096  150.6596 LP  0  0  0  0  0  0  0  0  0  0  0  0  # atno 17343 bound_to 10162
  157.0981  130.5970  149.5454 LP  0  0  0  0  0  0  0  0  0  0  0  0  # atno 17370 bound_to 10713
  155.9955  130.5022  150.7462 LP  0  0  0  0  0  0  0  0  0  0  0  0  # atno 17371 bound_to 10713
  141.1312  133.9298  157.2530 LP  0  0  0  0  0  0  0  0  0  0  0  0  # atno 17394 bound_to 11000
  139.9584  135.0160  156.9193 LP  0  0  0  0  0  0  0  0  0  0  0  0  # atno 17395 bound_to 11000

$$$$
