AV-unprocessed.smi:3081|AV-procd|sdf|11741|dock10
  -GOLD-   2272017133D 1   1.00000     0.00000
 Structure written by MMmdl.
 26 27  0  0  0  0  0  0  0  0  2 V2000
  151.1302  137.8524  154.3466 C   0  0  0  0  0  0  0  0  0  0  0  0
  150.6044  138.8569  155.1847 C   0  0  0  0  0  0  0  0  0  0  0  0
  151.5258  139.5132  156.0290 C   0  0  0  0  0  0  0  0  0  0  0  0
  151.0814  140.6179  156.9775 C   0  0  1  0  0  0  0  0  0  0  0  0
  152.2109  141.0615  157.9285 C   0  0  0  0  0  0  0  0  0  0  0  0
  151.7195  142.1793  158.8613 C   0  0  0  0  0  0  0  0  0  0  0  0
  151.1284  143.3481  158.0553 C   0  0  0  0  0  0  0  0  0  0  0  0
  150.0426  142.8754  157.1689 N   0  3  0  0  0  0  0  0  0  0  0  0
  150.4826  141.8248  156.2242 C   0  0  0  0  0  0  0  0  0  0  0  0
  152.8398  139.1906  156.0269 N   0  0  0  0  0  0  0  0  0  0  0  0
  153.2240  138.2218  155.1910 C   0  0  0  0  0  0  0  0  0  0  0  0
  152.4434  137.5374  154.3516 N   0  0  0  0  0  0  0  0  0  0  0  0
  150.4949  137.3009  153.6694 H   0  0  0  0  0  0  0  0  0  0  0  0
  149.5528  139.1036  155.1752 H   0  0  0  0  0  0  0  0  0  0  0  0
  150.2864  140.2000  157.5974 H   0  0  0  0  0  0  0  0  0  0  0  0
  152.5641  140.2142  158.5173 H   0  0  0  0  0  0  0  0  0  0  0  0
  153.0667  141.4213  157.3554 H   0  0  0  0  0  0  0  0  0  0  0  0
  150.9642  141.7839  159.5418 H   0  0  0  0  0  0  0  0  0  0  0  0
  152.5414  142.5331  159.4843 H   0  0  0  0  0  0  0  0  0  0  0  0
  150.7329  144.1093  158.7277 H   0  0  0  0  0  0  0  0  0  0  0  0
  151.9027  143.8251  157.4529 H   0  0  0  0  0  0  0  0  0  0  0  0
  149.2994  142.5022  157.7423 H   0  0  0  0  0  0  0  0  0  0  0  0
  151.2144  142.2541  155.5384 H   0  0  0  0  0  0  0  0  0  0  0  0
  149.6283  141.5113  155.6236 H   0  0  0  0  0  0  0  0  0  0  0  0
  154.2735  137.9677  155.1934 H   0  0  0  0  0  0  0  0  0  0  0  0
  149.6845  143.6595  156.6420 H   0  0  0  0  0  0  0  0  0  0  0  0
  1 12  1  0  0  0  0
  1  2  2  0  0  0  0
  1 13  1  0  0  0  0
  2  3  1  0  0  0  0
  2 14  1  0  0  0  0
  3  4  1  0  0  0  0
  3 10  2  0  0  0  0
  4  9  1  0  0  0  0
  4  5  1  0  0  0  0
  4 15  1  0  0  0  0
  5  6  1  0  0  0  0
  5 16  1  0  0  0  0
  5 17  1  0  0  0  0
  6  7  1  0  0  0  0
  6 18  1  0  0  0  0
  6 19  1  0  0  0  0
  7  8  1  0  0  0  0
  7 20  1  0  0  0  0
  7 21  1  0  0  0  0
  8  9  1  0  0  0  0
  8 22  1  0  0  0  0
  8 26  1  0  0  0  0
  9 23  1  0  0  0  0
  9 24  1  0  0  0  0
 10 11  1  0  0  0  0
 11 12  2  0  0  0  0
 11 25  1  0  0  0  0
M  CHG  1   8   1
M  END
> <s_m_source_file>
AV-unprocessed.smi

> <i_m_source_file_index>
3081

> <i_lp_mmshare_version>
43012

> <i_f3d_flags>
0

> <s_epik_input>
bjFbY0hdbltjSF1bY0hdYzFbQ0BASF0yW0NIMl1bQ0gyXVtDSDJdW05IXVtDSDJdMg==

> <s_epik_cmdline>
J2VwaWtfcHl0aG9uJywgJy1waCcsICc3LjAnLCAnLXRuJywgJzgnLCAnLW1hJywgJzIwMCcsICctbWV0YWxfYmluZGluZycsICctaW1hZScsICc8aW5maWxlLm1hZT4nLCAnLW9tYWUnLCAnPG91dGZpbGUubWFlPic=

> <r_lp_tautomer_probability>
1

> <r_epik_Ionization_Penalty>
0.000373217

> <r_epik_Ionization_Penalty_Charging>
0.000372054

> <r_epik_Ionization_Penalty_Neutral>
1.16293e-06

> <r_epik_State_Penalty>
0.00022692

> <r_epik_Charging_Adjusted_Penalty>
0.000598973

> <i_epik_Tot_Q>
1

> <i_epik_Tot_abs_Q>
1

> <r_epik_Metal_State_Penalty>
-0

> <b_epik_Metal_Only>
0

> <s_epik_Chemistry_Notes>
This compound contains an electron-poor aromatic ring that is susceptible to covalent hydrolysis at low pH, typically resulting in measured values for nitrogen ring protonation that are around two units higher than predicted values.

> <s_lp_Force_Field>
OPLS_2005

> <r_lp_Energy>
7.17513

> <b_lp_Chiralities_Consistent>
1

> <s_lp_Variant>
AV-unprocessed.smi:3081-2

> <Gold.Version>
5.8.1

> <Gold.Id.Protein>
6NUR|6NUR_protein|mol2

> <Gold.PLP.Fitness>
38.9357

> <Gold.PLP.PLP>
-24.5330

> <Gold.PLP.part.hbond>
-3.0000

> <Gold.PLP.part.metal>
0.0000

> <Gold.PLP.part.buried>
-2.9617

> <Gold.PLP.part.nonpolar>
-18.9064

> <Gold.PLP.part.repulsive>
0.1295

> <Gold.PLP.ligand.clash>
0.0000

> <Gold.PLP.ligand.torsion>
0.0574

> <Gold.PLP.Chemscore.Hbond>
3.6396

> <Gold.PLP.Chemscore.CHOScore>
1.1875

> <Gold.PLP.Chemscore.Metal>
0.0000

> <Gold.Chemscore.Hbonds>
donor molecule, donor type, donor heavy atom, donor atom, acceptor molecule, acceptor atom, score
      L1  H     8    26       P1  8028  2.00
      P1  H  7997  8008       L1    10  1.00
      P1  H 10752 10763       L1    12  0.64
      L1  C     1    13       P1  7948  0.68
      L1  C     1    13       P1  7949  0.40

> <Gold.PLP.Chemscore.Internal.Correction>
0.0360

> <Gold.Rescore>
     Score         DG    S(hbond)    S(metal)    S(lipo)     H(rot)  DE(clash)    DE(int)     intcor
     17.40     -18.11       2.54        0.00      57.36       1.00       0.12       0.59       ----

> <Gold.Chemscore.Fitness>
17.3956

> <Gold.Chemscore.DG>
-18.1090

> <Gold.Chemscore.ZeroCoef>
-5.4800

> <Gold.Chemscore.Hbond>
2.5385

> <Gold.Chemscore.Metal>
0.0000

> <Gold.Chemscore.Lipo>
57.3553

> <Gold.Chemscore.Internal_Hbond>
0.0000

> <Gold.Chemscore.DEClash>
0.1247

> <Gold.Chemscore.DEInternal>
0.5887

> <Gold.Chemscore.Rot>
1.0000

> <Gold.Chemscore.Internal.Correction>
   9.000000E+99

> <Gold.Chemscore.Hbonds>
donor molecule, donor type, donor heavy atom, donor atom, acceptor molecule, acceptor atom, score
      L1  H     8    26       P1  8028  1.00
      P1  H  7997  8008       L1    10  0.40
      P1  H 10752 10763       L1    12  0.53

> <Gold.Chemscore.Hbond.Weighted>
-8.4785

> <Gold.Chemscore.Metal.Weighted>
-0.0000

> <Gold.Chemscore.Lipo.Weighted>
-6.7106

> <Gold.Chemscore.Internal_Hbond.Weighted>
0.0000

> <Gold.Chemscore.DEClash.Weighted>
0.1247

> <Gold.Chemscore.DEInternal.Weighted>
0.5887

> <Gold.Chemscore.Rot.Weighted>
2.5600

> <Gold.Chemscore.Internal.Correction.Weighted>
   9.000000E+99

> <Gold.Protein.RotatedTorsions>
[ 6907 6896 6895 6894 ] final  177.96 input  -60.11 | X-H torsion
[ 7974 7965 7964 7962 ] final  -71.37 input  175.53 | X-H torsion
[ 8008 7997 7996 7995 ] final  -41.32 input   59.86 | X-H torsion
[ 10167 10162 10161 10158 ] final  -32.36 input  -65.29 | X-H torsion
[ 10718 10713 10712 10709 ] final  174.08 input   66.30 | X-H torsion
[ 10763 10752 10751 10750 ] final   28.52 input  -60.55 | X-H torsion
[ 11005 11000 10999 10996 ] final -168.88 input  -57.11 | X-H torsion

> <Gold.Protein.ActiveResidues>
 VAL166  LYS551  ARG553  GLY616  TRP617  ASP618  TYR619  PRO620  LYS621  CYS622 
 ASP623  PHE694  ASN695  SER759  ASP760  ASP761  ALA762  ILE779  LEU786  VAL792 
 PHE793  MET794  SER795  GLU796  ALA797  LYS798  CYS799  TRP800  GLU811  SER814 

> <Gold.Protein.RotatedAtoms>
  151.6955  133.3311  159.3253 H   0  0  0  0  0  0  0  0  0  0  0  0  # atno 6907 bound_to 6896
  150.7759  134.6661  159.6376 H   0  0  0  0  0  0  0  0  0  0  0  0  # atno 6908 bound_to 6896
  152.3801  134.6606  160.0198 H   0  0  0  0  0  0  0  0  0  0  0  0  # atno 6909 bound_to 6896
  145.6789  140.9195  143.0843 H   0  0  0  0  0  0  0  0  0  0  0  0  # atno 7974 bound_to 7965
  154.4005  140.1502  156.3172 H   0  0  0  0  0  0  0  0  0  0  0  0  # atno 8008 bound_to 7997
  155.8562  140.3455  155.5704 H   0  0  0  0  0  0  0  0  0  0  0  0  # atno 8009 bound_to 7997
  155.7930  140.0859  157.1989 H   0  0  0  0  0  0  0  0  0  0  0  0  # atno 8010 bound_to 7997
  140.7222  143.3700  151.1796 H   0  0  0  0  0  0  0  0  0  0  0  0  # atno 10167 bound_to 10162
  156.9549  131.0042  151.2940 H   0  0  0  0  0  0  0  0  0  0  0  0  # atno 10718 bound_to 10713
  153.0487  135.6511  154.0750 H   0  0  0  0  0  0  0  0  0  0  0  0  # atno 10763 bound_to 10752
  154.0443  135.2901  155.3352 H   0  0  0  0  0  0  0  0  0  0  0  0  # atno 10764 bound_to 10752
  154.6761  135.5337  153.8268 H   0  0  0  0  0  0  0  0  0  0  0  0  # atno 10765 bound_to 10752
  140.5370  134.5560  157.5090 H   0  0  0  0  0  0  0  0  0  0  0  0  # atno 11005 bound_to 11000
  144.7032  139.8670  143.7438 LP  0  0  0  0  0  0  0  0  0  0  0  0  # atno 17320 bound_to 7965
  146.0981  139.3975  143.0364 LP  0  0  0  0  0  0  0  0  0  0  0  0  # atno 17321 bound_to 7965
  139.7270  143.9133  152.3006 LP  0  0  0  0  0  0  0  0  0  0  0  0  # atno 17342 bound_to 10162
  139.8909  144.6966  150.8771 LP  0  0  0  0  0  0  0  0  0  0  0  0  # atno 17343 bound_to 10162
  157.5697  130.8302  149.8375 LP  0  0  0  0  0  0  0  0  0  0  0  0  # atno 17370 bound_to 10713
  156.0347  130.3755  150.1593 LP  0  0  0  0  0  0  0  0  0  0  0  0  # atno 17371 bound_to 10713
  139.9524  134.7594  156.0418 LP  0  0  0  0  0  0  0  0  0  0  0  0  # atno 17394 bound_to 11000
  141.1249  133.6602  156.3310 LP  0  0  0  0  0  0  0  0  0  0  0  0  # atno 17395 bound_to 11000

$$$$
