AV-unprocessed.smi:1795|AV-procd|sdf|7246|dock2
  -GOLD-   22720 8493D 1   1.00000     0.00000
 Structure written by MMmdl.
 48 49  0  0  0  0  0  0  0  0  2 V2000
  148.3560  141.6784  154.3297 C   0  0  0  0  0  0  0  0  0  0  0  0
  148.8230  140.2664  154.6994 C   0  0  1  0  0  0  0  0  0  0  0  0
  148.4559  139.2323  153.6161 C   0  0  0  0  0  0  0  0  0  0  0  0
  148.9613  137.8775  153.9687 N   0  3  2  0  0  0  0  0  0  0  0  0
  148.2148  137.1153  155.0261 C   0  0  1  0  0  0  0  0  0  0  0  0
  148.2943  137.7673  156.4280 C   0  0  0  0  0  0  0  0  0  0  0  0
  146.7343  136.9426  154.6058 C   0  0  0  0  0  0  0  0  0  0  0  0
  146.6012  136.4624  153.2356 N   0  0  0  0  0  0  0  0  0  0  0  0
  145.4650  135.9831  152.7103 C   0  0  0  0  0  0  0  0  0  0  0  0
  144.4132  135.9048  153.3466 O   0  0  0  0  0  0  0  0  0  0  0  0
  145.5344  135.5510  151.2385 C   0  0  0  0  0  0  0  0  0  0  0  0
  145.2736  134.1161  151.0371 N   0  0  0  0  0  0  0  0  0  0  0  0
  144.0587  133.7671  150.4142 C   0  0  0  0  0  0  0  0  0  0  0  0
  143.7205  132.4888  150.1839 C   0  0  0  0  0  0  0  0  0  0  0  0
  144.6425  131.4550  150.5909 C   0  0  0  0  0  0  0  0  0  0  0  0
  145.8047  131.7774  151.1924 C   0  0  0  0  0  0  0  0  0  0  0  0
  146.1754  133.1736  151.4522 C   0  0  0  0  0  0  0  0  0  0  0  0
  147.2315  133.4776  152.0081 O   0  0  0  0  0  0  0  0  0  0  0  0
  150.4294  137.9617  154.2024 C   0  0  0  0  0  0  0  0  0  0  0  0
  150.7819  139.0443  155.2477 C   0  0  1  0  0  0  0  0  0  0  0  0
  152.2964  139.2142  155.4080 C   0  0  0  0  0  0  0  0  0  0  0  0
  150.2395  140.2940  154.8358 O   0  0  0  0  0  0  0  0  0  0  0  0
  147.2721  141.7170  154.2189 H   0  0  0  0  0  0  0  0  0  0  0  0
  148.8007  142.0090  153.3904 H   0  0  0  0  0  0  0  0  0  0  0  0
  148.6370  142.3961  155.1008 H   0  0  0  0  0  0  0  0  0  0  0  0
  148.3724  139.9916  155.6544 H   0  0  0  0  0  0  0  0  0  0  0  0
  147.3889  139.2349  153.3991 H   0  0  0  0  0  0  0  0  0  0  0  0
  148.9279  139.5261  152.6772 H   0  0  0  0  0  0  0  0  0  0  0  0
  148.6605  136.1252  155.1182 H   0  0  0  0  0  0  0  0  0  0  0  0
  147.7114  137.2158  157.1652 H   0  0  0  0  0  0  0  0  0  0  0  0
  147.9156  138.7899  156.4137 H   0  0  0  0  0  0  0  0  0  0  0  0
  149.3129  137.7847  156.8151 H   0  0  0  0  0  0  0  0  0  0  0  0
  146.2389  136.2403  155.2787 H   0  0  0  0  0  0  0  0  0  0  0  0
  146.1856  137.8807  154.6777 H   0  0  0  0  0  0  0  0  0  0  0  0
  147.4232  136.4956  152.6498 H   0  0  0  0  0  0  0  0  0  0  0  0
  144.8172  136.1492  150.6748 H   0  0  0  0  0  0  0  0  0  0  0  0
  146.5108  135.8177  150.8296 H   0  0  0  0  0  0  0  0  0  0  0  0
  143.4227  134.5988  150.1469 H   0  0  0  0  0  0  0  0  0  0  0  0
  142.7820  132.2403  149.7106 H   0  0  0  0  0  0  0  0  0  0  0  0
  144.3985  130.4180  150.4125 H   0  0  0  0  0  0  0  0  0  0  0  0
  146.4818  130.9902  151.4903 H   0  0  0  0  0  0  0  0  0  0  0  0
  150.8498  137.0025  154.4985 H   0  0  0  0  0  0  0  0  0  0  0  0
  150.9061  138.2108  153.2531 H   0  0  0  0  0  0  0  0  0  0  0  0
  150.3678  138.7826  156.2220 H   0  0  0  0  0  0  0  0  0  0  0  0
  152.7619  138.2869  155.7431 H   0  0  0  0  0  0  0  0  0  0  0  0
  152.5268  139.9847  156.1442 H   0  0  0  0  0  0  0  0  0  0  0  0
  152.7646  139.5031  154.4664 H   0  0  0  0  0  0  0  0  0  0  0  0
  148.8390  137.3275  153.1301 H   0  0  0  0  0  0  0  0  0  0  0  0
  1  2  1  0  0  0  0
  1 23  1  0  0  0  0
  1 24  1  0  0  0  0
  1 25  1  0  0  0  0
  2 22  1  0  0  0  0
  2  3  1  0  0  0  0
  2 26  1  0  0  0  0
  3  4  1  0  0  0  0
  3 27  1  0  0  0  0
  3 28  1  0  0  0  0
  4  5  1  0  0  0  0
  4 19  1  0  0  0  0
  4 48  1  0  0  0  0
  5  6  1  0  0  0  0
  5  7  1  0  0  0  0
  5 29  1  0  0  0  0
  6 30  1  0  0  0  0
  6 31  1  0  0  0  0
  6 32  1  0  0  0  0
  7  8  1  0  0  0  0
  7 33  1  0  0  0  0
  7 34  1  0  0  0  0
  8  9  1  0  0  0  0
  8 35  1  0  0  0  0
  9 10  2  0  0  0  0
  9 11  1  0  0  0  0
 11 12  1  0  0  0  0
 11 36  1  0  0  0  0
 11 37  1  0  0  0  0
 12 17  1  0  0  0  0
 12 13  1  0  0  0  0
 13 14  2  0  0  0  0
 13 38  1  0  0  0  0
 14 15  1  0  0  0  0
 14 39  1  0  0  0  0
 15 16  2  0  0  0  0
 15 40  1  0  0  0  0
 16 17  1  0  0  0  0
 16 41  1  0  0  0  0
 17 18  2  0  0  0  0
 19 20  1  0  0  0  0
 19 42  1  0  0  0  0
 19 43  1  0  0  0  0
 20 21  1  0  0  0  0
 20 22  1  0  0  0  0
 20 44  1  0  0  0  0
 21 45  1  0  0  0  0
 21 46  1  0  0  0  0
 21 47  1  0  0  0  0
M  CHG  1   4   1
M  END
> <s_m_source_file>
AV-unprocessed.smi

> <i_m_source_file_index>
1795

> <i_lp_mmshare_version>
43012

> <i_f3d_flags>
0

> <s_epik_input>
W0NIM11bQ0BASF0xW0NIMl1OKFtDSDJdW0NASF0oTzEpW0NIM10pW0NASF0oW0NIM10pW0NIMl1bTkhdQyg9TylbQ0gyXW4yW2NIXVtjSF1bY0hdW2NIXWMyPU8=

> <s_epik_cmdline>
J2VwaWtfcHl0aG9uJywgJy1waCcsICc3LjAnLCAnLXRuJywgJzgnLCAnLW1hJywgJzIwMCcsICctbWV0YWxfYmluZGluZycsICctaW1hZScsICc8aW5maWxlLm1hZT4nLCAnLW9tYWUnLCAnPG91dGZpbGUubWFlPic=

> <r_lp_tautomer_probability>
1

> <r_epik_Ionization_Penalty>
0.656654

> <r_epik_Ionization_Penalty_Charging>
0.656654

> <r_epik_Ionization_Penalty_Neutral>
8.90321e-08

> <r_epik_State_Penalty>
0.675641

> <r_epik_Charging_Adjusted_Penalty>
1.33229

> <i_epik_Tot_Q>
1

> <i_epik_Tot_abs_Q>
1

> <r_epik_Metal_State_Penalty>
0.675691

> <b_epik_Metal_Only>
0

> <s_lp_Force_Field>
OPLS_2005

> <r_lp_Energy>
32.8471

> <b_lp_Chiralities_Consistent>
1

> <s_lp_Variant>
AV-unprocessed.smi:1795-10

> <Gold.Version>
5.8.1

> <Gold.Id.Protein>
6NUR|6NUR_protein|mol2

> <Gold.PLP.Fitness>
52.4169

> <Gold.PLP.PLP>
-37.9277

> <Gold.PLP.part.hbond>
-3.0000

> <Gold.PLP.part.metal>
0.0000

> <Gold.PLP.part.buried>
-2.3613

> <Gold.PLP.part.nonpolar>
-33.6570

> <Gold.PLP.part.repulsive>
0.3567

> <Gold.PLP.ligand.clash>
0.0000

> <Gold.PLP.ligand.torsion>
0.2565

> <Gold.PLP.Chemscore.Hbond>
4.0000

> <Gold.PLP.Chemscore.CHOScore>
0.9553

> <Gold.PLP.Chemscore.Metal>
0.0000

> <Gold.Chemscore.Hbonds>
donor molecule, donor type, donor heavy atom, donor atom, acceptor molecule, acceptor atom, score
      L1  H     4    48       P1  7948  2.00
      L1  H     8    35       P1  7948  1.00
      P1  H  7989  7998       L1    22  1.00
      L1  C    13    38       P1 10186  0.92

> <Gold.PLP.Chemscore.Internal.Correction>
0.1363

> <Gold.Rescore>
     Score         DG    S(hbond)    S(metal)    S(lipo)     H(rot)  DE(clash)    DE(int)     intcor
     17.50     -19.30       2.73        0.00      81.36       1.89       0.50       1.29       ----

> <Gold.Chemscore.Fitness>
17.5032

> <Gold.Chemscore.DG>
-19.2953

> <Gold.Chemscore.ZeroCoef>
-5.4800

> <Gold.Chemscore.Hbond>
2.7327

> <Gold.Chemscore.Metal>
0.0000

> <Gold.Chemscore.Lipo>
81.3582

> <Gold.Chemscore.Internal_Hbond>
0.0000

> <Gold.Chemscore.DEClash>
0.5026

> <Gold.Chemscore.DEInternal>
1.2896

> <Gold.Chemscore.Rot>
1.8870

> <Gold.Chemscore.Internal.Correction>
   9.000000E+99

> <Gold.Chemscore.Hbonds>
donor molecule, donor type, donor heavy atom, donor atom, acceptor molecule, acceptor atom, score
      L1  H     4    48       P1  7948  1.00
      L1  H     8    35       P1  7948  1.00
      P1  H  7989  7998       L1    22  0.28

> <Gold.Chemscore.Hbond.Weighted>
-9.1272

> <Gold.Chemscore.Metal.Weighted>
-0.0000

> <Gold.Chemscore.Lipo.Weighted>
-9.5189

> <Gold.Chemscore.Internal_Hbond.Weighted>
0.0000

> <Gold.Chemscore.DEClash.Weighted>
0.5026

> <Gold.Chemscore.DEInternal.Weighted>
1.2896

> <Gold.Chemscore.Rot.Weighted>
4.8308

> <Gold.Chemscore.Internal.Correction.Weighted>
   9.000000E+99

> <Gold.Protein.RotatedTorsions>
[ 6907 6896 6895 6894 ] final  -79.26 input  -60.11 | X-H torsion
[ 7974 7965 7964 7962 ] final  151.90 input  175.53 | X-H torsion
[ 8008 7997 7996 7995 ] final  -98.55 input   59.86 | X-H torsion
[ 10167 10162 10161 10158 ] final  -57.86 input  -65.29 | X-H torsion
[ 10718 10713 10712 10709 ] final -169.97 input   66.30 | X-H torsion
[ 10763 10752 10751 10750 ] final   -6.70 input  -60.55 | X-H torsion
[ 11005 11000 10999 10996 ] final  166.28 input  -57.11 | X-H torsion

> <Gold.Protein.ActiveResidues>
 VAL166  LYS551  ARG553  GLY616  TRP617  ASP618  TYR619  PRO620  LYS621  CYS622 
 ASP623  PHE694  ASN695  SER759  ASP760  ASP761  ALA762  ILE779  LEU786  VAL792 
 PHE793  MET794  SER795  GLU796  ALA797  LYS798  CYS799  TRP800  GLU811  SER814 

> <Gold.Protein.RotatedAtoms>
  150.6954  134.4147  159.5177 H   0  0  0  0  0  0  0  0  0  0  0  0  # atno 6907 bound_to 6896
  152.1900  134.8677  160.0527 H   0  0  0  0  0  0  0  0  0  0  0  0  # atno 6908 bound_to 6896
  151.9636  133.3668  159.4081 H   0  0  0  0  0  0  0  0  0  0  0  0  # atno 6909 bound_to 6896
  144.8260  139.6598  143.6080 H   0  0  0  0  0  0  0  0  0  0  0  0  # atno 7974 bound_to 7965
  154.8027  140.0454  157.1285 H   0  0  0  0  0  0  0  0  0  0  0  0  # atno 8008 bound_to 7997
  154.9460  140.3059  155.5078 H   0  0  0  0  0  0  0  0  0  0  0  0  # atno 8009 bound_to 7997
  156.2963  140.2297  156.4533 H   0  0  0  0  0  0  0  0  0  0  0  0  # atno 8010 bound_to 7997
  140.6233  143.2428  151.5427 H   0  0  0  0  0  0  0  0  0  0  0  0  # atno 10167 bound_to 10162
  156.7193  130.9264  151.3096 H   0  0  0  0  0  0  0  0  0  0  0  0  # atno 10718 bound_to 10713
  153.4161  135.7009  153.6326 H   0  0  0  0  0  0  0  0  0  0  0  0  # atno 10763 bound_to 10752
  153.4800  135.3696  155.2437 H   0  0  0  0  0  0  0  0  0  0  0  0  # atno 10764 bound_to 10752
  154.8719  135.4063  154.3521 H   0  0  0  0  0  0  0  0  0  0  0  0  # atno 10765 bound_to 10752
  140.2648  134.7873  157.3622 H   0  0  0  0  0  0  0  0  0  0  0  0  # atno 11005 bound_to 11000
  146.2565  139.6313  142.9391 LP  0  0  0  0  0  0  0  0  0  0  0  0  # atno 17320 bound_to 7965
  145.5000  141.0437  143.2545 LP  0  0  0  0  0  0  0  0  0  0  0  0  # atno 17321 bound_to 7965
  139.5457  144.2527  152.1438 LP  0  0  0  0  0  0  0  0  0  0  0  0  # atno 17342 bound_to 10162
  140.1752  144.4897  150.6558 LP  0  0  0  0  0  0  0  0  0  0  0  0  # atno 17343 bound_to 10162
  157.6904  130.9228  150.0499 LP  0  0  0  0  0  0  0  0  0  0  0  0  # atno 17370 bound_to 10713
  156.1606  130.3644  149.9305 LP  0  0  0  0  0  0  0  0  0  0  0  0  # atno 17371 bound_to 10713
  140.1430  134.4948  155.8017 LP  0  0  0  0  0  0  0  0  0  0  0  0  # atno 17394 bound_to 11000
  141.2185  133.6832  156.7243 LP  0  0  0  0  0  0  0  0  0  0  0  0  # atno 17395 bound_to 11000

$$$$
