AV-unprocessed.smi:935|AV-procd|sdf|4207|dock4
  -GOLD-   22720 2113D 1   1.00000     0.00000
 Structure written by MMmdl.
 34 35  0  0  0  0  0  0  0  0  1 V2000
  153.4461  141.0880  160.7216 C   0  0  0  0  0  0  0  0  0  0  0  0
  153.2976  142.6141  160.6427 C   0  0  0  0  0  0  0  0  0  0  0  0
  152.6958  143.2275  161.9153 C   0  0  0  0  0  0  0  0  0  0  0  0
  152.5664  143.0456  159.4103 C   0  0  0  0  0  0  0  0  0  0  0  0
  152.0506  142.1953  158.5174 N   0  0  0  0  0  0  0  0  0  0  0  0
  151.4143  142.8457  157.4558 C   0  0  0  0  0  0  0  0  0  0  0  0
  150.7708  142.0444  156.3657 C   0  0  0  0  0  0  0  0  0  0  0  0
  149.6752  141.1091  156.9038 C   0  0  0  0  0  0  0  0  0  0  0  0
  148.3711  141.4206  156.3301 N   0  0  0  0  0  0  0  0  0  0  0  0
  148.1154  141.5507  155.0195 C   0  0  0  0  0  0  0  0  0  0  0  0
  148.9789  141.4172  154.1510 O   0  0  0  0  0  0  0  0  0  0  0  0
  146.6897  141.8697  154.7089 C   0  0  0  0  0  0  0  0  0  0  0  0
  146.4010  143.1761  153.9974 C   0  0  0  0  0  0  0  0  0  0  0  0
  146.0481  143.0217  155.4557 C   0  0  0  0  0  0  0  0  0  0  0  0
  151.4561  144.2138  157.5567 C   0  0  0  0  0  0  0  0  0  0  0  0
  152.2972  144.7340  158.9906 S   0  0  0  0  0  0  0  0  0  0  0  0
  153.9523  140.6971  159.8384 H   0  0  0  0  0  0  0  0  0  0  0  0
  152.4746  140.5979  160.7932 H   0  0  0  0  0  0  0  0  0  0  0  0
  154.0306  140.7952  161.5942 H   0  0  0  0  0  0  0  0  0  0  0  0
  154.3075  143.0167  160.5562 H   0  0  0  0  0  0  0  0  0  0  0  0
  152.6809  144.3163  161.8562 H   0  0  0  0  0  0  0  0  0  0  0  0
  153.2762  142.9528  162.7965 H   0  0  0  0  0  0  0  0  0  0  0  0
  151.6717  142.8882  162.0735 H   0  0  0  0  0  0  0  0  0  0  0  0
  150.3470  142.7158  155.6181 H   0  0  0  0  0  0  0  0  0  0  0  0
  151.5265  141.4561  155.8434 H   0  0  0  0  0  0  0  0  0  0  0  0
  149.9135  140.0746  156.6543 H   0  0  0  0  0  0  0  0  0  0  0  0
  149.6282  141.1622  157.9930 H   0  0  0  0  0  0  0  0  0  0  0  0
  147.6065  141.5475  156.9773 H   0  0  0  0  0  0  0  0  0  0  0  0
  146.0445  141.0271  154.4642 H   0  0  0  0  0  0  0  0  0  0  0  0
  147.2352  143.8307  153.7511 H   0  0  0  0  0  0  0  0  0  0  0  0
  145.5896  143.1745  153.2725 H   0  0  0  0  0  0  0  0  0  0  0  0
  144.9978  142.9149  155.7191 H   0  0  0  0  0  0  0  0  0  0  0  0
  146.6486  143.5736  156.1770 H   0  0  0  0  0  0  0  0  0  0  0  0
  151.0426  144.9445  156.8776 H   0  0  0  0  0  0  0  0  0  0  0  0
  1  2  1  0  0  0  0
  1 17  1  0  0  0  0
  1 18  1  0  0  0  0
  1 19  1  0  0  0  0
  2  3  1  0  0  0  0
  2  4  1  0  0  0  0
  2 20  1  0  0  0  0
  3 21  1  0  0  0  0
  3 22  1  0  0  0  0
  3 23  1  0  0  0  0
  4 16  1  0  0  0  0
  4  5  2  0  0  0  0
  5  6  1  0  0  0  0
  6  7  1  0  0  0  0
  6 15  2  0  0  0  0
  7  8  1  0  0  0  0
  7 24  1  0  0  0  0
  7 25  1  0  0  0  0
  8  9  1  0  0  0  0
  8 26  1  0  0  0  0
  8 27  1  0  0  0  0
  9 10  1  0  0  0  0
  9 28  1  0  0  0  0
 10 11  2  0  0  0  0
 10 12  1  0  0  0  0
 12 14  1  0  0  0  0
 12 13  1  0  0  0  0
 12 29  1  0  0  0  0
 13 14  1  0  0  0  0
 13 30  1  0  0  0  0
 13 31  1  0  0  0  0
 14 32  1  0  0  0  0
 14 33  1  0  0  0  0
 15 16  1  0  0  0  0
 15 34  1  0  0  0  0
M  END
> <s_m_source_file>
AV-unprocessed.smi

> <i_m_source_file_index>
935

> <i_lp_mmshare_version>
43012

> <i_f3d_flags>
0

> <s_epik_input>
W0NIM11bQ0hdKFtDSDNdKWMxbmMoW2NIXXMxKVtDSDJdW0NIMl1bTkhdQyg9TylbQ0hdMltDSDJdW0NIMl0y

> <s_epik_cmdline>
J2VwaWtfcHl0aG9uJywgJy1waCcsICc3LjAnLCAnLXRuJywgJzgnLCAnLW1hJywgJzIwMCcsICctbWV0YWxfYmluZGluZycsICctaW1hZScsICc8aW5maWxlLm1hZT4nLCAnLW9tYWUnLCAnPG91dGZpbGUubWFlPic=

> <r_epik_Ionization_Penalty>
0.000842127

> <r_epik_Ionization_Penalty_Charging>
0

> <r_epik_Ionization_Penalty_Neutral>
0.000842127

> <r_epik_State_Penalty>
0.000542609

> <r_epik_Charging_Adjusted_Penalty>
0.000542609

> <i_epik_Tot_Q>
0

> <i_epik_Tot_abs_Q>
0

> <r_epik_Metal_State_Penalty>
-0

> <b_epik_Metal_Only>
0

> <s_lp_Force_Field>
OPLS_2005

> <r_lp_Energy>
-5.7146

> <b_lp_Chiralities_Consistent>
1

> <s_lp_Variant>
AV-unprocessed.smi:935-1

> <Gold.Version>
5.8.1

> <Gold.Id.Protein>
6NUR|6NUR_protein|mol2

> <Gold.PLP.Fitness>
47.2755

> <Gold.PLP.PLP>
-42.9411

> <Gold.PLP.part.hbond>
-2.0000

> <Gold.PLP.part.metal>
0.0000

> <Gold.PLP.part.buried>
-5.1458

> <Gold.PLP.part.nonpolar>
-36.3046

> <Gold.PLP.part.repulsive>
0.4270

> <Gold.PLP.ligand.clash>
0.0000

> <Gold.PLP.ligand.torsion>
0.5413

> <Gold.PLP.Chemscore.Hbond>
0.7520

> <Gold.PLP.Chemscore.CHOScore>
1.0000

> <Gold.PLP.Chemscore.Metal>
0.0000

> <Gold.Chemscore.Hbonds>
donor molecule, donor type, donor heavy atom, donor atom, acceptor molecule, acceptor atom, score
      P1  H  8011  8017       L1    11  0.35
      L1  C    15    34       P1  8028  0.94

> <Gold.PLP.Chemscore.Internal.Correction>
0.1609

> <Gold.Rescore>
     Score         DG    S(hbond)    S(metal)    S(lipo)     H(rot)  DE(clash)    DE(int)     intcor
     15.50     -17.58       0.78        0.00     115.17       1.55       0.68       1.40       ----

> <Gold.Chemscore.Fitness>
15.5001

> <Gold.Chemscore.DG>
-17.5849

> <Gold.Chemscore.ZeroCoef>
-5.4800

> <Gold.Chemscore.Hbond>
0.7804

> <Gold.Chemscore.Metal>
0.0000

> <Gold.Chemscore.Lipo>
115.1700

> <Gold.Chemscore.Internal_Hbond>
0.0000

> <Gold.Chemscore.DEClash>
0.6816

> <Gold.Chemscore.DEInternal>
1.4032

> <Gold.Chemscore.Rot>
1.5534

> <Gold.Chemscore.Internal.Correction>
   9.000000E+99

> <Gold.Chemscore.Hbonds>
donor molecule, donor type, donor heavy atom, donor atom, acceptor molecule, acceptor atom, score
      P1  H  8011  8017       L1    11  0.35

> <Gold.Chemscore.Hbond.Weighted>
-2.6066

> <Gold.Chemscore.Metal.Weighted>
-0.0000

> <Gold.Chemscore.Lipo.Weighted>
-13.4749

> <Gold.Chemscore.Internal_Hbond.Weighted>
0.0000

> <Gold.Chemscore.DEClash.Weighted>
0.6816

> <Gold.Chemscore.DEInternal.Weighted>
1.4032

> <Gold.Chemscore.Rot.Weighted>
3.9767

> <Gold.Chemscore.Internal.Correction.Weighted>
   9.000000E+99

> <Gold.Protein.RotatedTorsions>
[ 6907 6896 6895 6894 ] final  124.41 input  -60.11 | X-H torsion
[ 7974 7965 7964 7962 ] final  -94.33 input  175.53 | X-H torsion
[ 8008 7997 7996 7995 ] final   28.29 input   59.86 | X-H torsion
[ 10167 10162 10161 10158 ] final -147.58 input  -65.29 | X-H torsion
[ 10718 10713 10712 10709 ] final  134.31 input   66.30 | X-H torsion
[ 10763 10752 10751 10750 ] final  -83.04 input  -60.55 | X-H torsion
[ 11005 11000 10999 10996 ] final  -42.97 input  -57.11 | X-H torsion

> <Gold.Protein.ActiveResidues>
 VAL166  LYS551  ARG553  GLY616  TRP617  ASP618  TYR619  PRO620  LYS621  CYS622 
 ASP623  PHE694  ASN695  SER759  ASP760  ASP761  ALA762  ILE779  LEU786  VAL792 
 PHE793  MET794  SER795  GLU796  ALA797  LYS798  CYS799  TRP800  GLU811  SER814 

> <Gold.Protein.RotatedAtoms>
  152.4080  133.6919  159.6372 H   0  0  0  0  0  0  0  0  0  0  0  0  # atno 6907 bound_to 6896
  150.7963  133.8674  159.3258 H   0  0  0  0  0  0  0  0  0  0  0  0  # atno 6908 bound_to 6896
  151.6424  135.1013  160.0195 H   0  0  0  0  0  0  0  0  0  0  0  0  # atno 6909 bound_to 6896
  145.3746  140.9510  143.2428 H   0  0  0  0  0  0  0  0  0  0  0  0  # atno 7974 bound_to 7965
  155.0563  140.3185  155.4675 H   0  0  0  0  0  0  0  0  0  0  0  0  # atno 8008 bound_to 7997
  156.2823  140.2137  156.5633 H   0  0  0  0  0  0  0  0  0  0  0  0  # atno 8009 bound_to 7997
  154.7169  140.0493  157.0590 H   0  0  0  0  0  0  0  0  0  0  0  0  # atno 8010 bound_to 7997
  139.7609  143.8379  152.2607 H   0  0  0  0  0  0  0  0  0  0  0  0  # atno 10167 bound_to 10162
  157.4685  131.1078  150.9832 H   0  0  0  0  0  0  0  0  0  0  0  0  # atno 10718 bound_to 10713
  154.5830  135.5570  153.7204 H   0  0  0  0  0  0  0  0  0  0  0  0  # atno 10763 bound_to 10752
  153.0088  135.6325  154.1955 H   0  0  0  0  0  0  0  0  0  0  0  0  # atno 10764 bound_to 10752
  154.1896  135.2883  155.3006 H   0  0  0  0  0  0  0  0  0  0  0  0  # atno 10765 bound_to 10752
  141.0352  133.6803  156.2668 H   0  0  0  0  0  0  0  0  0  0  0  0  # atno 11005 bound_to 11000
  144.8551  139.5262  143.6838 LP  0  0  0  0  0  0  0  0  0  0  0  0  # atno 17320 bound_to 7965
  146.2870  139.7031  142.9188 LP  0  0  0  0  0  0  0  0  0  0  0  0  # atno 17321 bound_to 7965
  139.8385  144.7221  150.9361 LP  0  0  0  0  0  0  0  0  0  0  0  0  # atno 17342 bound_to 10162
  140.7807  143.4005  151.1157 LP  0  0  0  0  0  0  0  0  0  0  0  0  # atno 17343 bound_to 10162
  157.0605  130.5823  149.5385 LP  0  0  0  0  0  0  0  0  0  0  0  0  # atno 17370 bound_to 10713
  156.0062  130.5149  150.7837 LP  0  0  0  0  0  0  0  0  0  0  0  0  # atno 17371 bound_to 10713
  140.6335  134.5240  157.5562 LP  0  0  0  0  0  0  0  0  0  0  0  0  # atno 17394 bound_to 11000
  139.9236  134.8101  156.1137 LP  0  0  0  0  0  0  0  0  0  0  0  0  # atno 17395 bound_to 11000

$$$$
