AV-unprocessed.smi:283|AV-procd|sdf|2143|dock6
  -GOLD-   2262021473D 1   1.00000     0.00000
 Structure written by MMmdl.
 48 51  0  0  0  0  0  0  0  0  1 V2000
  149.5468  141.1148  157.6124 C   0  0  0  0  0  0  0  0  0  0  0  0
  150.9754  141.5738  157.2920 C   0  0  2  0  0  0  0  0  0  0  0  0
  151.8172  140.4146  156.9988 N   0  0  0  0  0  0  0  0  0  0  0  0
  151.3850  139.4308  156.1784 C   0  0  0  0  0  0  0  0  0  0  0  0
  151.0841  139.6809  154.8772 N   0  0  0  0  0  0  0  0  0  0  0  0
  150.6608  138.6905  154.0869 C   0  0  0  0  0  0  0  0  0  0  0  0
  150.4703  137.4046  154.3909 N   0  0  0  0  0  0  0  0  0  0  0  0
  150.7662  137.1486  155.6980 C   0  0  0  0  0  0  0  0  0  0  0  0
  151.2234  138.1024  156.6496 C   0  0  0  0  0  0  0  0  0  0  0  0
  151.4193  137.4855  157.8782 N   0  0  0  0  0  0  0  0  0  0  0  0
  151.0938  136.2395  157.6610 C   0  0  0  0  0  0  0  0  0  0  0  0
  150.6951  135.9480  156.3752 N   0  0  0  0  0  0  0  0  0  0  0  0
  150.2715  134.6228  155.8316 C   0  0  1  0  0  0  0  0  0  0  0  0
  151.1545  134.2700  154.8136 O   0  0  0  0  0  0  0  0  0  0  0  0
  151.3907  132.8663  154.8311 C   0  0  2  0  0  0  0  0  0  0  0  0
  150.3230  132.1630  153.9700 C   0  0  0  0  0  0  0  0  0  0  0  0
  150.3341  130.7757  154.2286 O   0  0  0  0  0  0  0  0  0  0  0  0
  151.2902  132.5025  156.3192 C   0  0  1  0  0  0  0  0  0  0  0  0
  152.5707  132.6037  156.9096 O   0  0  0  0  0  0  0  0  0  0  0  0
  150.3325  133.5330  156.9145 C   0  0  2  0  0  0  0  0  0  0  0  0
  149.0639  132.9389  157.1062 O   0  0  0  0  0  0  0  0  0  0  0  0
  151.5090  142.4766  158.4069 C   0  0  0  0  0  0  0  0  0  0  0  0
  151.2080  143.8587  158.3960 C   0  0  0  0  0  0  0  0  0  0  0  0
  151.6904  144.7067  159.4105 C   0  0  0  0  0  0  0  0  0  0  0  0
  152.4863  144.1826  160.4448 C   0  0  0  0  0  0  0  0  0  0  0  0
  152.8018  142.8114  160.4597 C   0  0  0  0  0  0  0  0  0  0  0  0
  152.3208  141.9572  159.4469 C   0  0  0  0  0  0  0  0  0  0  0  0
  152.7509  140.2835  159.5099 Cl  0  0  0  0  0  0  0  0  0  0  0  0
  149.2708  134.7883  155.4289 H   0  0  0  0  0  0  0  0  0  0  0  0
  152.3831  132.6379  154.4381 H   0  0  0  0  0  0  0  0  0  0  0  0
  150.9517  131.4762  156.4702 H   0  0  0  0  0  0  0  0  0  0  0  0
  150.6888  133.9334  157.8655 H   0  0  0  0  0  0  0  0  0  0  0  0
  148.8834  141.9693  157.7506 H   0  0  0  0  0  0  0  0  0  0  0  0
  149.5158  140.5183  158.5249 H   0  0  0  0  0  0  0  0  0  0  0  0
  149.1368  140.5091  156.8034 H   0  0  0  0  0  0  0  0  0  0  0  0
  150.9274  142.1479  156.3673 H   0  0  0  0  0  0  0  0  0  0  0  0
  152.7744  140.4793  157.3144 H   0  0  0  0  0  0  0  0  0  0  0  0
  150.4443  138.9679  153.0657 H   0  0  0  0  0  0  0  0  0  0  0  0
  151.1401  135.4919  158.4396 H   0  0  0  0  0  0  0  0  0  0  0  0
  149.3292  132.5299  154.2282 H   0  0  0  0  0  0  0  0  0  0  0  0
  150.4664  132.3488  152.9052 H   0  0  0  0  0  0  0  0  0  0  0  0
  149.4420  130.4854  154.3442 H   0  0  0  0  0  0  0  0  0  0  0  0
  153.2167  132.3496  156.2667 H   0  0  0  0  0  0  0  0  0  0  0  0
  148.9746  132.7102  158.0188 H   0  0  0  0  0  0  0  0  0  0  0  0
  150.6021  144.2784  157.6063 H   0  0  0  0  0  0  0  0  0  0  0  0
  151.4505  145.7597  159.3939 H   0  0  0  0  0  0  0  0  0  0  0  0
  152.8576  144.8319  161.2241 H   0  0  0  0  0  0  0  0  0  0  0  0
  153.4181  142.4137  161.2527 H   0  0  0  0  0  0  0  0  0  0  0  0
  1  2  1  0  0  0  0
  1 33  1  0  0  0  0
  1 34  1  0  0  0  0
  1 35  1  0  0  0  0
  2  3  1  0  0  0  0
  2 22  1  0  0  0  0
  2 36  1  0  0  0  0
  3  4  1  0  0  0  0
  3 37  1  0  0  0  0
  4  9  1  0  0  0  0
  4  5  2  0  0  0  0
  5  6  1  0  0  0  0
  6  7  2  0  0  0  0
  6 38  1  0  0  0  0
  7  8  1  0  0  0  0
  8 12  1  0  0  0  0
  8  9  2  0  0  0  0
  9 10  1  0  0  0  0
 10 11  2  0  0  0  0
 11 12  1  0  0  0  0
 11 39  1  0  0  0  0
 12 13  1  0  0  0  0
 13 29  1  0  0  0  0
 13 20  1  0  0  0  0
 13 14  1  0  0  0  0
 14 15  1  0  0  0  0
 15 30  1  0  0  0  0
 15 16  1  0  0  0  0
 15 18  1  0  0  0  0
 16 17  1  0  0  0  0
 16 40  1  0  0  0  0
 16 41  1  0  0  0  0
 17 42  1  0  0  0  0
 18 31  1  0  0  0  0
 18 19  1  0  0  0  0
 18 20  1  0  0  0  0
 19 43  1  0  0  0  0
 20 32  1  0  0  0  0
 20 21  1  0  0  0  0
 21 44  1  0  0  0  0
 22 27  1  0  0  0  0
 22 23  2  0  0  0  0
 23 24  1  0  0  0  0
 23 45  1  0  0  0  0
 24 25  2  0  0  0  0
 24 46  1  0  0  0  0
 25 26  1  0  0  0  0
 25 47  1  0  0  0  0
 26 27  2  0  0  0  0
 26 48  1  0  0  0  0
 27 28  1  0  0  0  0
M  END
> <s_m_source_file>
AV-unprocessed.smi

> <i_m_source_file_index>
283

> <i_lp_mmshare_version>
43012

> <i_f3d_flags>
0

> <s_epik_input>
Q2xjMVtjSF1bY0hdW2NIXVtjSF1jMVtDQEhdKFtDSDNdKVtOSF1jKG5bY0hdbjIpYyhjMjMpbltjSF1uM1tDQEBIXTRPW0NASF0oW0NIMl1bT0hdKVtDQEBIXShbT0hdKVtDQEhdNFtPSF0=

> <s_epik_cmdline>
J2VwaWtfcHl0aG9uJywgJy1waCcsICc3LjAnLCAnLXRuJywgJzgnLCAnLW1hJywgJzIwMCcsICctbWV0YWxfYmluZGluZycsICctaW1hZScsICc8aW5maWxlLm1hZT4nLCAnLW9tYWUnLCAnPG91dGZpbGUubWFlPic=

> <r_lp_tautomer_probability>
1

> <r_epik_Ionization_Penalty>
0.000266407

> <r_epik_Ionization_Penalty_Charging>
0

> <r_epik_Ionization_Penalty_Neutral>
0.000266407

> <r_epik_State_Penalty>
-0

> <r_epik_Charging_Adjusted_Penalty>
0

> <i_epik_Tot_Q>
0

> <i_epik_Tot_abs_Q>
0

> <r_epik_Metal_State_Penalty>
-0

> <b_epik_Metal_Only>
0

> <s_epik_Chemistry_Notes>
This compound contains an acetal/aminal-like group ( X-CH(R)-Y where X, Y are N, S, or O) that may be acid/base labile, releasing an aldehyde.

> <s_lp_Force_Field>
OPLS_2005

> <r_lp_Energy>
39.2487

> <b_lp_Chiralities_Consistent>
1

> <s_lp_Variant>
AV-unprocessed.smi:283-19

> <Gold.Version>
5.8.1

> <Gold.Id.Protein>
6NUR|6NUR_protein|mol2

> <Gold.PLP.Fitness>
49.7446

> <Gold.PLP.PLP>
-43.6404

> <Gold.PLP.part.hbond>
-2.0000

> <Gold.PLP.part.metal>
0.0000

> <Gold.PLP.part.buried>
-8.6611

> <Gold.PLP.part.nonpolar>
-34.4960

> <Gold.PLP.part.repulsive>
1.0033

> <Gold.PLP.ligand.clash>
0.0000

> <Gold.PLP.ligand.torsion>
1.4955

> <Gold.PLP.Chemscore.Hbond>
2.0000

> <Gold.PLP.Chemscore.CHOScore>
1.0000

> <Gold.PLP.Chemscore.Metal>
0.0000

> <Gold.Chemscore.Hbonds>
donor molecule, donor type, donor heavy atom, donor atom, acceptor molecule, acceptor atom, score
      P1  H  7989  7998       L1     5  0.85
      L1  C     6    38       P1  7957  1.00

> <Gold.PLP.Chemscore.Internal.Correction>
0.0951

> <Gold.Rescore>
     Score         DG    S(hbond)    S(metal)    S(lipo)     H(rot)  DE(clash)    DE(int)     intcor
     10.82     -14.28       1.88        0.00     111.19       4.10       0.61       2.85       ----

> <Gold.Chemscore.Fitness>
10.8157

> <Gold.Chemscore.DG>
-14.2768

> <Gold.Chemscore.ZeroCoef>
-5.4800

> <Gold.Chemscore.Hbond>
1.8790

> <Gold.Chemscore.Metal>
0.0000

> <Gold.Chemscore.Lipo>
111.1868

> <Gold.Chemscore.Internal_Hbond>
0.0000

> <Gold.Chemscore.DEClash>
0.6096

> <Gold.Chemscore.DEInternal>
2.8514

> <Gold.Chemscore.Rot>
4.0968

> <Gold.Chemscore.Internal.Correction>
   9.000000E+99

> <Gold.Chemscore.Hbonds>
donor molecule, donor type, donor heavy atom, donor atom, acceptor molecule, acceptor atom, score
      P1  H  7989  7998       L1     5  0.15

> <Gold.Chemscore.Hbond.Weighted>
-6.2758

> <Gold.Chemscore.Metal.Weighted>
-0.0000

> <Gold.Chemscore.Lipo.Weighted>
-13.0089

> <Gold.Chemscore.Internal_Hbond.Weighted>
0.0000

> <Gold.Chemscore.DEClash.Weighted>
0.6096

> <Gold.Chemscore.DEInternal.Weighted>
2.8514

> <Gold.Chemscore.Rot.Weighted>
10.4879

> <Gold.Chemscore.Internal.Correction.Weighted>
   9.000000E+99

> <Gold.Protein.RotatedTorsions>
[ 6907 6896 6895 6894 ] final  -50.58 input  -60.11 | X-H torsion
[ 7974 7965 7964 7962 ] final  -25.13 input  175.53 | X-H torsion
[ 8008 7997 7996 7995 ] final   61.41 input   59.86 | X-H torsion
[ 10167 10162 10161 10158 ] final   40.10 input  -65.29 | X-H torsion
[ 10718 10713 10712 10709 ] final   95.97 input   66.30 | X-H torsion
[ 10763 10752 10751 10750 ] final  -13.46 input  -60.55 | X-H torsion
[ 11005 11000 10999 10996 ] final   86.43 input  -57.11 | X-H torsion

> <Gold.Protein.ActiveResidues>
 VAL166  LYS551  ARG553  GLY616  TRP617  ASP618  TYR619  PRO620  LYS621  CYS622 
 ASP623  PHE694  ASN695  SER759  ASP760  ASP761  ALA762  ILE779  LEU786  VAL792 
 PHE793  MET794  SER795  GLU796  ALA797  LYS798  CYS799  TRP800  GLU811  SER814 

> <Gold.Protein.RotatedAtoms>
  150.8693  134.8064  159.7142 H   0  0  0  0  0  0  0  0  0  0  0  0  # atno 6907 bound_to 6896
  152.4703  134.4972  159.9723 H   0  0  0  0  0  0  0  0  0  0  0  0  # atno 6908 bound_to 6896
  151.5063  133.3455  159.2913 H   0  0  0  0  0  0  0  0  0  0  0  0  # atno 6909 bound_to 6896
  146.1510  140.4846  142.8611 H   0  0  0  0  0  0  0  0  0  0  0  0  # atno 7974 bound_to 7965
  155.5979  140.3493  155.4585 H   0  0  0  0  0  0  0  0  0  0  0  0  # atno 8008 bound_to 7997
  156.0251  140.1262  157.0342 H   0  0  0  0  0  0  0  0  0  0  0  0  # atno 8009 bound_to 7997
  154.4330  140.1055  156.6004 H   0  0  0  0  0  0  0  0  0  0  0  0  # atno 8010 bound_to 7997
  140.3775  144.2023  150.6131 H   0  0  0  0  0  0  0  0  0  0  0  0  # atno 10167 bound_to 10162
  157.6932  131.0563  150.4420 H   0  0  0  0  0  0  0  0  0  0  0  0  # atno 10718 bound_to 10713
  153.5137  135.7016  153.5767 H   0  0  0  0  0  0  0  0  0  0  0  0  # atno 10763 bound_to 10752
  153.3846  135.3911  155.1881 H   0  0  0  0  0  0  0  0  0  0  0  0  # atno 10764 bound_to 10752
  154.8701  135.3843  154.4619 H   0  0  0  0  0  0  0  0  0  0  0  0  # atno 10765 bound_to 10752
  139.8945  134.8354  156.2719 H   0  0  0  0  0  0  0  0  0  0  0  0  # atno 11005 bound_to 11000
  144.7904  140.6021  143.6545 LP  0  0  0  0  0  0  0  0  0  0  0  0  # atno 17320 bound_to 7965
  145.4822  139.1494  143.3755 LP  0  0  0  0  0  0  0  0  0  0  0  0  # atno 17321 bound_to 7965
  140.4971  143.2329  151.8734 LP  0  0  0  0  0  0  0  0  0  0  0  0  # atno 17342 bound_to 10162
  139.4798  144.5101  151.8944 LP  0  0  0  0  0  0  0  0  0  0  0  0  # atno 17343 bound_to 10162
  156.4777  130.4067  149.6480 LP  0  0  0  0  0  0  0  0  0  0  0  0  # atno 17370 bound_to 10713
  156.3537  130.7445  151.2408 LP  0  0  0  0  0  0  0  0  0  0  0  0  # atno 17371 bound_to 10713
  141.0095  133.7104  156.1089 LP  0  0  0  0  0  0  0  0  0  0  0  0  # atno 17394 bound_to 11000
  140.7387  134.4174  157.5557 LP  0  0  0  0  0  0  0  0  0  0  0  0  # atno 17395 bound_to 11000

$$$$
