AV-unprocessed.smi:1412|AV-procd|sdf|5742|dock8
  -GOLD-   22720 5373D 1   1.00000     0.00000
 Structure written by MMmdl.
 42 43  0  0  0  0  0  0  0  0  2 V2000
  147.2209  138.8240  151.9546 C   0  0  0  0  0  0  0  0  0  0  0  0
  147.0615  140.1725  152.6794 C   0  0  0  0  0  0  0  0  0  0  0  0
  147.0722  140.1068  154.2376 C   0  0  1  0  0  0  0  0  0  0  0  0
  146.4076  141.4095  154.7573 C   0  0  0  0  0  0  0  0  0  0  0  0
  146.2309  138.8861  154.7266 C   0  0  0  0  0  0  0  0  0  0  0  0
  144.9413  138.7500  154.0487 N   0  0  0  0  0  0  0  0  0  0  0  0
  143.9781  137.8755  154.3759 C   0  0  0  0  0  0  0  0  0  0  0  0
  144.0796  137.0707  155.3017 O   0  0  0  0  0  0  0  0  0  0  0  0
  142.9146  137.9944  153.5617 N   0  0  0  0  0  0  0  0  0  0  0  0
  141.7161  137.2325  153.5639 C   0  0  0  0  0  0  0  0  0  0  0  0
  141.5771  136.0651  154.2119 N   0  0  0  0  0  0  0  0  0  0  0  0
  140.3073  135.5271  154.0473 N   0  0  0  0  0  0  0  0  0  0  0  0
  139.5397  136.3082  153.2823 C   0  0  0  0  0  0  0  0  0  0  0  0
  140.2929  137.7781  152.6884 S   0  0  0  0  0  0  0  0  0  0  0  0
  148.4933  140.0061  154.7346 N   0  3  0  0  0  0  0  0  0  0  0  0
  149.3349  138.9457  154.1111 C   0  0  0  0  0  0  0  0  0  0  0  0
  150.6827  138.8269  154.8435 C   0  0  0  0  0  0  0  0  0  0  0  0
  151.3514  140.0802  154.8341 O   0  0  0  0  0  0  0  0  0  0  0  0
  150.5995  141.0816  155.5049 C   0  0  0  0  0  0  0  0  0  0  0  0
  149.2590  141.2847  154.7811 C   0  0  0  0  0  0  0  0  0  0  0  0
  147.2191  138.9722  150.8745 H   0  0  0  0  0  0  0  0  0  0  0  0
  146.4066  138.1381  152.1873 H   0  0  0  0  0  0  0  0  0  0  0  0
  148.1596  138.3337  152.2109 H   0  0  0  0  0  0  0  0  0  0  0  0
  147.8676  140.8208  152.3350 H   0  0  0  0  0  0  0  0  0  0  0  0
  146.1532  140.6590  152.3243 H   0  0  0  0  0  0  0  0  0  0  0  0
  145.4728  141.6214  154.2371 H   0  0  0  0  0  0  0  0  0  0  0  0
  147.0532  142.2771  154.6209 H   0  0  0  0  0  0  0  0  0  0  0  0
  146.1587  141.3483  155.8170 H   0  0  0  0  0  0  0  0  0  0  0  0
  146.7906  137.9564  154.6240 H   0  0  0  0  0  0  0  0  0  0  0  0
  146.0103  138.9806  155.7894 H   0  0  0  0  0  0  0  0  0  0  0  0
  144.7701  139.3738  153.2735 H   0  0  0  0  0  0  0  0  0  0  0  0
  142.9721  138.7061  152.8485 H   0  0  0  0  0  0  0  0  0  0  0  0
  138.5227  136.0160  153.0658 H   0  0  0  0  0  0  0  0  0  0  0  0
  148.8524  137.9711  154.1554 H   0  0  0  0  0  0  0  0  0  0  0  0
  149.5096  139.1726  153.0592 H   0  0  0  0  0  0  0  0  0  0  0  0
  150.5386  138.4862  155.8703 H   0  0  0  0  0  0  0  0  0  0  0  0
  151.3141  138.0878  154.3499 H   0  0  0  0  0  0  0  0  0  0  0  0
  150.4429  140.8045  156.5486 H   0  0  0  0  0  0  0  0  0  0  0  0
  151.1712  142.0098  155.5039 H   0  0  0  0  0  0  0  0  0  0  0  0
  149.4551  141.6486  153.7726 H   0  0  0  0  0  0  0  0  0  0  0  0
  148.7077  142.0647  155.3021 H   0  0  0  0  0  0  0  0  0  0  0  0
  148.3972  139.7241  155.6999 H   0  0  0  0  0  0  0  0  0  0  0  0
  1  2  1  0  0  0  0
  1 21  1  0  0  0  0
  1 22  1  0  0  0  0
  1 23  1  0  0  0  0
  2  3  1  0  0  0  0
  2 24  1  0  0  0  0
  2 25  1  0  0  0  0
  3  4  1  0  0  0  0
  3  5  1  0  0  0  0
  3 15  1  0  0  0  0
  4 26  1  0  0  0  0
  4 27  1  0  0  0  0
  4 28  1  0  0  0  0
  5  6  1  0  0  0  0
  5 29  1  0  0  0  0
  5 30  1  0  0  0  0
  6  7  1  0  0  0  0
  6 31  1  0  0  0  0
  7  8  2  0  0  0  0
  7  9  1  0  0  0  0
  9 10  1  0  0  0  0
  9 32  1  0  0  0  0
 10 14  1  0  0  0  0
 10 11  2  0  0  0  0
 11 12  1  0  0  0  0
 12 13  2  0  0  0  0
 13 14  1  0  0  0  0
 13 33  1  0  0  0  0
 15 20  1  0  0  0  0
 15 16  1  0  0  0  0
 15 42  1  0  0  0  0
 16 17  1  0  0  0  0
 16 34  1  0  0  0  0
 16 35  1  0  0  0  0
 17 18  1  0  0  0  0
 17 36  1  0  0  0  0
 17 37  1  0  0  0  0
 18 19  1  0  0  0  0
 19 20  1  0  0  0  0
 19 38  1  0  0  0  0
 19 39  1  0  0  0  0
 20 40  1  0  0  0  0
 20 41  1  0  0  0  0
M  CHG  1  15   1
M  END
> <s_m_source_file>
AV-unprocessed.smi

> <i_m_source_file_index>
1412

> <i_lp_mmshare_version>
43012

> <i_f3d_flags>
0

> <s_epik_input>
W0NIMl0xW0NIMl1PW0NIMl1bQ0gyXU4xW0NAQF0oW0NIM10pKFtDSDJdW0NIM10pW0NIMl1bTkhdQyg9TylbTkhdYzJubltjSF1zMg==

> <s_epik_cmdline>
J2VwaWtfcHl0aG9uJywgJy1waCcsICc3LjAnLCAnLXRuJywgJzgnLCAnLW1hJywgJzIwMCcsICctbWV0YWxfYmluZGluZycsICctaW1hZScsICc8aW5maWxlLm1hZT4nLCAnLW9tYWUnLCAnPG91dGZpbGUubWFlPic=

> <r_lp_tautomer_probability>
1

> <r_epik_Ionization_Penalty>
0.554649

> <r_epik_Ionization_Penalty_Charging>
0.553838

> <r_epik_Ionization_Penalty_Neutral>
0.000811527

> <r_epik_State_Penalty>
0.564424

> <r_epik_Charging_Adjusted_Penalty>
1.11826

> <i_epik_Tot_Q>
1

> <i_epik_Tot_abs_Q>
1

> <r_epik_Metal_State_Penalty>
0.786249

> <b_epik_Metal_Only>
0

> <s_lp_Force_Field>
OPLS_2005

> <r_lp_Energy>
27.1522

> <b_lp_Chiralities_Consistent>
1

> <s_lp_Variant>
AV-unprocessed.smi:1412-3

> <Gold.Version>
5.8.1

> <Gold.Id.Protein>
6NUR|6NUR_protein|mol2

> <Gold.PLP.Fitness>
42.9572

> <Gold.PLP.PLP>
-32.5338

> <Gold.PLP.part.hbond>
-4.7419

> <Gold.PLP.part.metal>
0.0000

> <Gold.PLP.part.buried>
-2.0343

> <Gold.PLP.part.nonpolar>
-25.8181

> <Gold.PLP.part.repulsive>
0.2731

> <Gold.PLP.ligand.clash>
0.0000

> <Gold.PLP.ligand.torsion>
0.8552

> <Gold.PLP.Chemscore.Hbond>
4.0000

> <Gold.PLP.Chemscore.CHOScore>
0.0000

> <Gold.PLP.Chemscore.Metal>
0.0000

> <Gold.Chemscore.Hbonds>
donor molecule, donor type, donor heavy atom, donor atom, acceptor molecule, acceptor atom, score
      L1  H     6    31       P1 10175  0.96
      L1  H     9    32       P1 10175  0.90
      P1  H  7989  7998       L1    18  0.90
      P1  H 11000 11005       L1    12  0.93
      L1  C    13    33       P1 10187  0.22

> <Gold.PLP.Chemscore.Internal.Correction>
0.1337

> <Gold.Rescore>
     Score         DG    S(hbond)    S(metal)    S(lipo)     H(rot)  DE(clash)    DE(int)     intcor
     15.51     -18.86       3.14        0.00      66.47       1.91       0.16       3.20       ----

> <Gold.Chemscore.Fitness>
15.5065

> <Gold.Chemscore.DG>
-18.8602

> <Gold.Chemscore.ZeroCoef>
-5.4800

> <Gold.Chemscore.Hbond>
3.1447

> <Gold.Chemscore.Metal>
0.0000

> <Gold.Chemscore.Lipo>
66.4669

> <Gold.Chemscore.Internal_Hbond>
0.0000

> <Gold.Chemscore.DEClash>
0.1571

> <Gold.Chemscore.DEInternal>
3.1966

> <Gold.Chemscore.Rot>
1.9140

> <Gold.Chemscore.Internal.Correction>
   9.000000E+99

> <Gold.Chemscore.Hbonds>
donor molecule, donor type, donor heavy atom, donor atom, acceptor molecule, acceptor atom, score
      L1  H     6    31       P1 10175  0.92
      L1  H     9    32       P1 10175  0.88
      P1  H  7989  7998       L1    18  0.17
      P1  H 11000 11005       L1    12  0.22

> <Gold.Chemscore.Hbond.Weighted>
-10.5034

> <Gold.Chemscore.Metal.Weighted>
-0.0000

> <Gold.Chemscore.Lipo.Weighted>
-7.7766

> <Gold.Chemscore.Internal_Hbond.Weighted>
0.0000

> <Gold.Chemscore.DEClash.Weighted>
0.1571

> <Gold.Chemscore.DEInternal.Weighted>
3.1966

> <Gold.Chemscore.Rot.Weighted>
4.8998

> <Gold.Chemscore.Internal.Correction.Weighted>
   9.000000E+99

> <Gold.Protein.RotatedTorsions>
[ 6907 6896 6895 6894 ] final  162.66 input  -60.11 | X-H torsion
[ 7974 7965 7964 7962 ] final   74.37 input  175.53 | X-H torsion
[ 8008 7997 7996 7995 ] final   81.27 input   59.86 | X-H torsion
[ 10167 10162 10161 10158 ] final   34.14 input  -65.29 | X-H torsion
[ 10718 10713 10712 10709 ] final  -61.69 input   66.30 | X-H torsion
[ 10763 10752 10751 10750 ] final  -97.07 input  -60.55 | X-H torsion
[ 11005 11000 10999 10996 ] final   58.84 input  -57.11 | X-H torsion

> <Gold.Protein.ActiveResidues>
 VAL166  LYS551  ARG553  GLY616  TRP617  ASP618  TYR619  PRO620  LYS621  CYS622 
 ASP623  PHE694  ASN695  SER759  ASP760  ASP761  ALA762  ILE779  LEU786  VAL792 
 PHE793  MET794  SER795  GLU796  ALA797  LYS798  CYS799  TRP800  GLU811  SER814 

> <Gold.Protein.RotatedAtoms>
  151.9371  133.3627  159.3951 H   0  0  0  0  0  0  0  0  0  0  0  0  # atno 6907 bound_to 6896
  150.7005  134.4478  159.5331 H   0  0  0  0  0  0  0  0  0  0  0  0  # atno 6908 bound_to 6896
  152.2128  134.8485  160.0546 H   0  0  0  0  0  0  0  0  0  0  0  0  # atno 6909 bound_to 6896
  145.7291  139.2677  143.1551 H   0  0  0  0  0  0  0  0  0  0  0  0  # atno 7974 bound_to 7965
  155.8948  140.3436  155.5983 H   0  0  0  0  0  0  0  0  0  0  0  0  # atno 8008 bound_to 7997
  155.7568  140.0827  157.2193 H   0  0  0  0  0  0  0  0  0  0  0  0  # atno 8009 bound_to 7997
  154.4037  140.1543  156.2774 H   0  0  0  0  0  0  0  0  0  0  0  0  # atno 8010 bound_to 7997
  140.4342  144.1280  150.6164 H   0  0  0  0  0  0  0  0  0  0  0  0  # atno 10167 bound_to 10162
  156.0904  130.4201  150.1030 H   0  0  0  0  0  0  0  0  0  0  0  0  # atno 10718 bound_to 10713
  154.7295  135.5060  153.8941 H   0  0  0  0  0  0  0  0  0  0  0  0  # atno 10763 bound_to 10752
  153.0936  135.6666  153.9814 H   0  0  0  0  0  0  0  0  0  0  0  0  # atno 10764 bound_to 10752
  153.9618  135.3047  155.3412 H   0  0  0  0  0  0  0  0  0  0  0  0  # atno 10765 bound_to 10752
  140.0348  134.5959  155.9459 H   0  0  0  0  0  0  0  0  0  0  0  0  # atno 11005 bound_to 11000
  146.0554  140.8026  142.9761 LP  0  0  0  0  0  0  0  0  0  0  0  0  # atno 17320 bound_to 7965
  144.6897  140.3116  143.7247 LP  0  0  0  0  0  0  0  0  0  0  0  0  # atno 17321 bound_to 7965
  140.4392  143.2534  151.9495 LP  0  0  0  0  0  0  0  0  0  0  0  0  # atno 17342 bound_to 10162
  139.4786  144.5670  151.8148 LP  0  0  0  0  0  0  0  0  0  0  0  0  # atno 17343 bound_to 10162
  156.9041  130.9630  151.3572 LP  0  0  0  0  0  0  0  0  0  0  0  0  # atno 17370 bound_to 10713
  157.6052  130.8542  149.8864 LP  0  0  0  0  0  0  0  0  0  0  0  0  # atno 17371 bound_to 10713
  141.1851  133.6554  156.5184 LP  0  0  0  0  0  0  0  0  0  0  0  0  # atno 17394 bound_to 11000
  140.4166  134.7225  157.4866 LP  0  0  0  0  0  0  0  0  0  0  0  0  # atno 17395 bound_to 11000

$$$$
