AV-unprocessed.smi:101|AV-procd|sdf|921|dock9
  -GOLD-   2262017423D 1   1.00000     0.00000
 Structure written by MMmdl.
 44 46  0  0  0  0  0  0  0  0  1 V2000
  146.4915  142.1359  157.6212 C   0  0  0  0  0  0  0  0  0  0  0  0
  146.6821  141.1434  156.4859 C   0  0  0  0  0  0  0  0  0  0  0  0
  147.7033  140.2487  156.4660 C   0  0  0  0  0  0  0  0  0  0  0  0
  147.9034  139.3289  155.4427 N   0  0  0  0  0  0  0  0  0  0  0  0
  149.0460  138.3275  155.4522 C   0  0  2  0  0  0  0  0  0  0  0  0
  149.7535  138.4337  156.6520 O   0  0  0  0  0  0  0  0  0  0  0  0
  151.0026  139.0742  156.4193 C   0  0  1  0  0  0  0  0  0  0  0  0
  151.9887  138.7901  157.5591 C   0  0  0  0  0  0  0  0  0  0  0  0
  151.8374  139.8084  158.5338 O   0  0  0  0  0  0  0  0  0  0  0  0
  152.9124  140.4660  159.0046 C   0  0  0  0  0  0  0  0  0  0  0  0
  154.0600  140.0185  158.9623 O   0  0  0  0  0  0  0  0  0  0  0  0
  152.5645  141.7945  159.5870 C   0  0  0  0  0  0  0  0  0  0  0  0
  152.8660  142.0574  160.9438 C   0  0  0  0  0  0  0  0  0  0  0  0
  152.5456  143.3013  161.5217 C   0  0  0  0  0  0  0  0  0  0  0  0
  151.9209  144.2980  160.7495 C   0  0  0  0  0  0  0  0  0  0  0  0
  151.6173  144.0497  159.3982 C   0  0  0  0  0  0  0  0  0  0  0  0
  151.9360  142.8061  158.8186 C   0  0  0  0  0  0  0  0  0  0  0  0
  151.3995  138.5596  155.0341 C   0  0  1  0  0  0  0  0  0  0  0  0
  151.9465  137.2559  155.1145 O   0  0  0  0  0  0  0  0  0  0  0  0
  150.0636  138.5400  154.3002 C   0  0  2  0  0  0  0  0  0  0  0  0
  149.8935  139.7618  153.6015 O   0  0  0  0  0  0  0  0  0  0  0  0
  147.0051  139.3029  154.3562 C   0  0  0  0  0  0  0  0  0  0  0  0
  147.1241  138.5192  153.4149 O   0  0  0  0  0  0  0  0  0  0  0  0
  145.9576  140.2214  154.3755 N   0  0  0  0  0  0  0  0  0  0  0  0
  145.7210  141.1629  155.3797 C   0  0  0  0  0  0  0  0  0  0  0  0
  144.7596  141.9240  155.2842 O   0  0  0  0  0  0  0  0  0  0  0  0
  145.3146  140.2058  153.5975 H   0  0  0  0  0  0  0  0  0  0  0  0
  147.2523  142.0196  158.3940 H   0  0  0  0  0  0  0  0  0  0  0  0
  145.5166  141.9974  158.0899 H   0  0  0  0  0  0  0  0  0  0  0  0
  146.5492  143.1583  157.2462 H   0  0  0  0  0  0  0  0  0  0  0  0
  148.3862  140.2663  157.3013 H   0  0  0  0  0  0  0  0  0  0  0  0
  148.5750  137.3427  155.4368 H   0  0  0  0  0  0  0  0  0  0  0  0
  150.8409  140.1508  156.3434 H   0  0  0  0  0  0  0  0  0  0  0  0
  151.8067  137.8054  157.9923 H   0  0  0  0  0  0  0  0  0  0  0  0
  153.0128  138.8074  157.1842 H   0  0  0  0  0  0  0  0  0  0  0  0
  153.3442  141.3070  161.5570 H   0  0  0  0  0  0  0  0  0  0  0  0
  152.7788  143.4897  162.5594 H   0  0  0  0  0  0  0  0  0  0  0  0
  151.6744  145.2513  161.1934 H   0  0  0  0  0  0  0  0  0  0  0  0
  151.1385  144.8140  158.8041 H   0  0  0  0  0  0  0  0  0  0  0  0
  151.6877  142.6491  157.7789 H   0  0  0  0  0  0  0  0  0  0  0  0
  152.1358  139.2059  154.5539 H   0  0  0  0  0  0  0  0  0  0  0  0
  151.8474  136.9407  155.9999 H   0  0  0  0  0  0  0  0  0  0  0  0
  149.9912  137.7197  153.5848 H   0  0  0  0  0  0  0  0  0  0  0  0
  149.6338  139.5626  152.7146 H   0  0  0  0  0  0  0  0  0  0  0  0
  1  2  1  0  0  0  0
  1 28  1  0  0  0  0
  1 29  1  0  0  0  0
  1 30  1  0  0  0  0
  2 25  1  0  0  0  0
  2  3  2  0  0  0  0
  3  4  1  0  0  0  0
  3 31  1  0  0  0  0
  4  5  1  0  0  0  0
  4 22  1  0  0  0  0
  5 20  1  0  0  0  0
  5  6  1  0  0  0  0
  5 32  1  0  0  0  0
  6  7  1  0  0  0  0
  7  8  1  0  0  0  0
  7 18  1  0  0  0  0
  7 33  1  0  0  0  0
  8  9  1  0  0  0  0
  8 34  1  0  0  0  0
  8 35  1  0  0  0  0
  9 10  1  0  0  0  0
 10 11  2  0  0  0  0
 10 12  1  0  0  0  0
 12 17  1  0  0  0  0
 12 13  2  0  0  0  0
 13 14  1  0  0  0  0
 13 36  1  0  0  0  0
 14 15  2  0  0  0  0
 14 37  1  0  0  0  0
 15 16  1  0  0  0  0
 15 38  1  0  0  0  0
 16 17  2  0  0  0  0
 16 39  1  0  0  0  0
 17 40  1  0  0  0  0
 18 19  1  0  0  0  0
 18 20  1  0  0  0  0
 18 41  1  0  0  0  0
 19 42  1  0  0  0  0
 20 21  1  0  0  0  0
 20 43  1  0  0  0  0
 21 44  1  0  0  0  0
 22 23  2  0  0  0  0
 22 24  1  0  0  0  0
 24 27  1  0  0  0  0
 24 25  1  0  0  0  0
 25 26  2  0  0  0  0
M  END
> <s_m_source_file>
AV-unprocessed.smi

> <i_m_source_file_index>
101

> <i_lp_mmshare_version>
43012

> <i_f3d_flags>
0

> <s_epik_input>
Tz1jMVtuSF1jKD1PKW4oW2NIXWMxW0NIM10pW0NAQEhdMk9bQ0BIXShbQ0BASF0oW09IXSlbQ0BIXTJbT0hdKVtDSDJdT0MoPU8pYzNbY0hdW2NIXVtjSF1bY0hdW2NIXTM=

> <s_epik_cmdline>
J2VwaWtfcHl0aG9uJywgJy1waCcsICc3LjAnLCAnLXRuJywgJzgnLCAnLW1hJywgJzIwMCcsICctbWV0YWxfYmluZGluZycsICctaW1hZScsICc8aW5maWxlLm1hZT4nLCAnLW9tYWUnLCAnPG91dGZpbGUubWFlPic=

> <r_lp_tautomer_probability>
0.999537

> <r_epik_Ionization_Penalty>
0.00263537

> <r_epik_Ionization_Penalty_Charging>
0.00263428

> <r_epik_Ionization_Penalty_Neutral>
1.09111e-06

> <r_epik_State_Penalty>
0.00183335

> <r_epik_Charging_Adjusted_Penalty>
0.00446763

> <i_epik_Tot_Q>
0

> <i_epik_Tot_abs_Q>
0

> <r_epik_Metal_State_Penalty>
1.00528

> <b_epik_Metal_Only>
0

> <s_epik_Chemistry_Notes>
This compound has an ester and may undergo hydrolysis at high or low pH. This compound contains an acetal/aminal-like group ( X-CH(R)-Y where X, Y are N, S, or O) that may be acid/base labile, releasing an aldehyde.

> <s_lp_Force_Field>
OPLS_2005

> <r_lp_Energy>
37.3052

> <b_lp_Chiralities_Consistent>
1

> <s_lp_Variant>
AV-unprocessed.smi:101-9

> <Gold.Version>
5.8.1

> <Gold.Id.Protein>
6NUR|6NUR_protein|mol2

> <Gold.PLP.Fitness>
50.1341

> <Gold.PLP.PLP>
-40.6716

> <Gold.PLP.part.hbond>
-4.7202

> <Gold.PLP.part.metal>
0.0000

> <Gold.PLP.part.buried>
-7.6171

> <Gold.PLP.part.nonpolar>
-30.5583

> <Gold.PLP.part.repulsive>
0.3887

> <Gold.PLP.ligand.clash>
0.0000

> <Gold.PLP.ligand.torsion>
2.1788

> <Gold.PLP.Chemscore.Hbond>
4.5593

> <Gold.PLP.Chemscore.CHOScore>
0.0000

> <Gold.PLP.Chemscore.Metal>
0.0000

> <Gold.Chemscore.Hbonds>
donor molecule, donor type, donor heavy atom, donor atom, acceptor molecule, acceptor atom, score
      L1  H    21    44       P1  7957  0.94
      L1  H    24    27       P1 10175  1.00
      P1  H  7989  7998       L1    21  0.75
      P1  H  7997  8009       L1    11  0.98
      P1  H 10752 10764       L1    19  0.73

> <Gold.PLP.Chemscore.Internal.Correction>
0.1420

> <Gold.Rescore>
     Score         DG    S(hbond)    S(metal)    S(lipo)     H(rot)  DE(clash)    DE(int)     intcor
     18.29     -20.60       3.74        0.00      95.07       3.32       0.05       2.27       ----

> <Gold.Chemscore.Fitness>
18.2903

> <Gold.Chemscore.DG>
-20.6050

> <Gold.Chemscore.ZeroCoef>
-5.4800

> <Gold.Chemscore.Hbond>
3.7406

> <Gold.Chemscore.Metal>
0.0000

> <Gold.Chemscore.Lipo>
95.0718

> <Gold.Chemscore.Internal_Hbond>
0.0000

> <Gold.Chemscore.DEClash>
0.0456

> <Gold.Chemscore.DEInternal>
2.2691

> <Gold.Chemscore.Rot>
3.3172

> <Gold.Chemscore.Internal.Correction>
   9.000000E+99

> <Gold.Chemscore.Hbonds>
donor molecule, donor type, donor heavy atom, donor atom, acceptor molecule, acceptor atom, score
      L1  H    21    44       P1  7957  0.90
      L1  H    24    27       P1 10175  0.96
      P1  H  7989  7998       L1    21  0.34
      P1  H  7997  8009       L1    11  0.91
      P1  H 10752 10764       L1    19  0.12

> <Gold.Chemscore.Hbond.Weighted>
-12.4936

> <Gold.Chemscore.Metal.Weighted>
-0.0000

> <Gold.Chemscore.Lipo.Weighted>
-11.1234

> <Gold.Chemscore.Internal_Hbond.Weighted>
0.0000

> <Gold.Chemscore.DEClash.Weighted>
0.0456

> <Gold.Chemscore.DEInternal.Weighted>
2.2691

> <Gold.Chemscore.Rot.Weighted>
8.4920

> <Gold.Chemscore.Internal.Correction.Weighted>
   9.000000E+99

> <Gold.Protein.RotatedTorsions>
[ 6907 6896 6895 6894 ] final  -57.73 input  -60.11 | X-H torsion
[ 7974 7965 7964 7962 ] final  -23.54 input  175.53 | X-H torsion
[ 8008 7997 7996 7995 ] final  123.38 input   59.86 | X-H torsion
[ 10167 10162 10161 10158 ] final  144.08 input  -65.29 | X-H torsion
[ 10718 10713 10712 10709 ] final  -19.94 input   66.30 | X-H torsion
[ 10763 10752 10751 10750 ] final  -71.96 input  -60.55 | X-H torsion
[ 11005 11000 10999 10996 ] final   39.34 input  -57.11 | X-H torsion

> <Gold.Protein.ActiveResidues>
 VAL166  LYS551  ARG553  GLY616  TRP617  ASP618  TYR619  PRO620  LYS621  CYS622 
 ASP623  PHE694  ASN695  SER759  ASP760  ASP761  ALA762  ILE779  LEU786  VAL792 
 PHE793  MET794  SER795  GLU796  ALA797  LYS798  CYS799  TRP800  GLU811  SER814 

> <Gold.Protein.RotatedAtoms>
  150.8062  134.7189  159.6646 H   0  0  0  0  0  0  0  0  0  0  0  0  # atno 6907 bound_to 6896
  152.4182  134.6000  160.0007 H   0  0  0  0  0  0  0  0  0  0  0  0  # atno 6908 bound_to 6896
  151.6223  133.3301  159.3127 H   0  0  0  0  0  0  0  0  0  0  0  0  # atno 6909 bound_to 6896
  146.1610  140.4630  142.8571 H   0  0  0  0  0  0  0  0  0  0  0  0  # atno 7974 bound_to 7965
  156.2764  140.2764  156.1619 H   0  0  0  0  0  0  0  0  0  0  0  0  # atno 8008 bound_to 7997
  155.0745  140.0387  157.2637 H   0  0  0  0  0  0  0  0  0  0  0  0  # atno 8009 bound_to 7997
  154.7013  140.2650  155.6722 H   0  0  0  0  0  0  0  0  0  0  0  0  # atno 8010 bound_to 7997
  139.4955  144.5997  151.6508 H   0  0  0  0  0  0  0  0  0  0  0  0  # atno 10167 bound_to 10162
  156.5387  130.4673  149.6510 H   0  0  0  0  0  0  0  0  0  0  0  0  # atno 10718 bound_to 10713
  154.4391  135.5945  153.6117 H   0  0  0  0  0  0  0  0  0  0  0  0  # atno 10763 bound_to 10752
  152.9804  135.5993  154.3745 H   0  0  0  0  0  0  0  0  0  0  0  0  # atno 10764 bound_to 10752
  154.3592  135.2841  155.2308 H   0  0  0  0  0  0  0  0  0  0  0  0  # atno 10765 bound_to 10752
  140.2037  134.3839  155.8083 H   0  0  0  0  0  0  0  0  0  0  0  0  # atno 11005 bound_to 11000
  144.8027  140.6242  143.6468 LP  0  0  0  0  0  0  0  0  0  0  0  0  # atno 17320 bound_to 7965
  145.4589  139.1515  143.3877 LP  0  0  0  0  0  0  0  0  0  0  0  0  # atno 17321 bound_to 7965
  140.5643  144.0216  150.6185 LP  0  0  0  0  0  0  0  0  0  0  0  0  # atno 17342 bound_to 10162
  140.3312  143.3076  152.0685 LP  0  0  0  0  0  0  0  0  0  0  0  0  # atno 17343 bound_to 10162
  156.2992  130.7167  151.2035 LP  0  0  0  0  0  0  0  0  0  0  0  0  # atno 17370 bound_to 10713
  157.7409  131.0511  150.5133 LP  0  0  0  0  0  0  0  0  0  0  0  0  # atno 17371 bound_to 10713
  141.2227  133.7107  156.8301 LP  0  0  0  0  0  0  0  0  0  0  0  0  # atno 17394 bound_to 11000
  140.2026  134.8886  157.3186 LP  0  0  0  0  0  0  0  0  0  0  0  0  # atno 17395 bound_to 11000

$$$$
