AV-unprocessed.smi:2655|AV-procd|sdf|10301|dock10
  -GOLD-   2272014313D 1   1.00000     0.00000
 Structure written by MMmdl.
 32 33  0  0  0  0  0  0  0  0  3 V2000
  150.4595  140.6673  155.6789 C   0  0  0  0  0  0  0  0  0  0  0  0
  151.2613  139.4044  155.5508 C   0  0  0  0  0  0  0  0  0  0  0  0
  151.8183  139.1110  154.3800 N   0  0  0  0  0  0  0  0  0  0  0  0
  152.4512  137.9429  154.5979 N   0  0  0  0  0  0  0  0  0  0  0  0
  152.2912  137.5090  155.8885 C   0  0  0  0  0  0  0  0  0  0  0  0
  152.8477  136.3593  156.3116 O   0  5  0  0  0  0  0  0  0  0  0  0
  151.5228  138.4201  156.5544 C   0  0  0  0  0  0  0  0  0  0  0  0
  151.0609  138.4070  157.9873 C   0  0  0  0  0  0  0  0  0  0  0  0
  150.4419  137.0522  158.3681 C   0  0  0  0  0  0  0  0  0  0  0  0
  149.6049  137.1565  159.5590 N   0  0  0  0  0  0  0  0  0  0  0  0
  148.4040  136.5858  159.7311 C   0  0  0  0  0  0  0  0  0  0  0  0
  147.9177  135.8923  158.8348 O   0  0  0  0  0  0  0  0  0  0  0  0
  147.8386  136.8569  160.9309 N   0  5  0  0  0  0  0  0  0  0  0  0
  146.7890  136.1389  161.3593 C   0  0  0  0  0  0  0  0  0  0  0  0
  146.8451  134.8388  161.9317 C   0  0  0  0  0  0  0  0  0  0  0  0
  145.5336  134.5505  162.1816 C   0  0  0  0  0  0  0  0  0  0  0  0
  144.8545  133.3652  162.7780 C   0  0  0  0  0  0  0  0  0  0  0  0
  144.7399  135.5817  161.7852 O   0  0  0  0  0  0  0  0  0  0  0  0
  145.5508  136.5919  161.2539 N   0  0  0  0  0  0  0  0  0  0  0  0
  150.4151  141.0044  156.7144 H   0  0  0  0  0  0  0  0  0  0  0  0
  149.4366  140.5152  155.3349 H   0  0  0  0  0  0  0  0  0  0  0  0
  150.8938  141.4751  155.0898 H   0  0  0  0  0  0  0  0  0  0  0  0
  152.9733  137.4690  153.8752 H   0  0  0  0  0  0  0  0  0  0  0  0
  150.3328  139.2003  158.1597 H   0  0  0  0  0  0  0  0  0  0  0  0
  151.8941  138.6240  158.6565 H   0  0  0  0  0  0  0  0  0  0  0  0
  149.8674  136.6442  157.5348 H   0  0  0  0  0  0  0  0  0  0  0  0
  151.2314  136.3315  158.5819 H   0  0  0  0  0  0  0  0  0  0  0  0
  149.9646  137.7148  160.3189 H   0  0  0  0  0  0  0  0  0  0  0  0
  147.7087  134.2220  162.1309 H   0  0  0  0  0  0  0  0  0  0  0  0
  144.9976  132.4844  162.1522 H   0  0  0  0  0  0  0  0  0  0  0  0
  143.7827  133.5358  162.8809 H   0  0  0  0  0  0  0  0  0  0  0  0
  145.2579  133.1473  163.7667 H   0  0  0  0  0  0  0  0  0  0  0  0
  1 20  1  0  0  0  0
  1 21  1  0  0  0  0
  1 22  1  0  0  0  0
  1  2  1  0  0  0  0
  2  7  1  0  0  0  0
  2  3  2  0  0  0  0
  3  4  1  0  0  0  0
  4 23  1  0  0  0  0
  4  5  1  0  0  0  0
  5  7  2  0  0  0  0
  5  6  1  0  0  0  0
  7  8  1  0  0  0  0
  8  9  1  0  0  0  0
  8 24  1  0  0  0  0
  8 25  1  0  0  0  0
  9 10  1  0  0  0  0
  9 26  1  0  0  0  0
  9 27  1  0  0  0  0
 10 11  1  0  0  0  0
 10 28  1  0  0  0  0
 11 12  2  0  0  0  0
 11 13  1  0  0  0  0
 13 14  1  0  0  0  0
 14 19  2  0  0  0  0
 14 15  1  0  0  0  0
 15 16  2  0  0  0  0
 15 29  1  0  0  0  0
 16 17  1  0  0  0  0
 16 18  1  0  0  0  0
 17 30  1  0  0  0  0
 17 31  1  0  0  0  0
 17 32  1  0  0  0  0
 18 19  1  0  0  0  0
M  CHG  1   6  -1
M  CHG  1  13  -1
M  END
> <s_m_source_file>
AV-unprocessed.smi

> <i_m_source_file_index>
2655

> <i_lp_mmshare_version>
43012

> <i_f3d_flags>
0

> <s_epik_input>
W0NIM11DMT1OW05IXUMoPU8pW0NASF0xW0NIMl1bQ0gyXVtOSF1DKD1PKVtOSF1jMltjSF1jKFtDSDNdKW9uMg==

> <s_epik_cmdline>
J2VwaWtfcHl0aG9uJywgJy1waCcsICc3LjAnLCAnLXRuJywgJzgnLCAnLW1hJywgJzIwMCcsICctbWV0YWxfYmluZGluZycsICctaW1hZScsICc8aW5maWxlLm1hZT4nLCAnLW9tYWUnLCAnPG91dGZpbGUubWFlPic=

> <r_lp_tautomer_probability>
0.99495

> <r_epik_Ionization_Penalty>
8.09923

> <r_epik_Ionization_Penalty_Charging>
6.55729

> <r_epik_Ionization_Penalty_Neutral>
1.54195

> <r_epik_State_Penalty>
6.87174

> <r_epik_Charging_Adjusted_Penalty>
13.429

> <i_epik_Tot_Q>
-2

> <i_epik_Tot_abs_Q>
2

> <r_epik_Metal_State_Penalty>
4.19188

> <b_epik_Metal_Only>
1

> <s_lp_Force_Field>
OPLS_2005

> <r_lp_Energy>
-4.19881

> <b_lp_Chiralities_Consistent>
1

> <s_lp_Variant>
AV-unprocessed.smi:2655-4

> <Gold.Version>
5.8.1

> <Gold.Id.Protein>
6NUR|6NUR_protein|mol2

> <Gold.PLP.Fitness>
43.2514

> <Gold.PLP.PLP>
-25.4958

> <Gold.PLP.part.hbond>
-4.0000

> <Gold.PLP.part.metal>
0.0000

> <Gold.PLP.part.buried>
-4.3905

> <Gold.PLP.part.nonpolar>
-19.7221

> <Gold.PLP.part.repulsive>
1.7928

> <Gold.PLP.ligand.clash>
0.0000

> <Gold.PLP.ligand.torsion>
1.0825

> <Gold.PLP.Chemscore.Hbond>
6.6240

> <Gold.PLP.Chemscore.CHOScore>
0.0000

> <Gold.PLP.Chemscore.Metal>
0.0000

> <Gold.Chemscore.Hbonds>
donor molecule, donor type, donor heavy atom, donor atom, acceptor molecule, acceptor atom, score
      P1  H  6931  6943       L1    13  1.76
      P1  H  6934  6947       L1    13  0.74
      P1  H  7989  7998       L1     3  0.94
      P1  H 10752 10763       L1     6  1.89

> <Gold.PLP.Chemscore.Internal.Correction>
0.0486

> <Gold.Rescore>
     Score         DG    S(hbond)    S(metal)    S(lipo)     H(rot)  DE(clash)    DE(int)     intcor
     13.40     -15.19       2.59        0.00      48.98       1.82       0.69       1.10       ----

> <Gold.Chemscore.Fitness>
13.3985

> <Gold.Chemscore.DG>
-15.1917

> <Gold.Chemscore.ZeroCoef>
-5.4800

> <Gold.Chemscore.Hbond>
2.5880

> <Gold.Chemscore.Metal>
0.0000

> <Gold.Chemscore.Lipo>
48.9818

> <Gold.Chemscore.Internal_Hbond>
0.0000

> <Gold.Chemscore.DEClash>
0.6945

> <Gold.Chemscore.DEInternal>
1.0987

> <Gold.Chemscore.Rot>
1.8215

> <Gold.Chemscore.Internal.Correction>
   9.000000E+99

> <Gold.Chemscore.Hbonds>
donor molecule, donor type, donor heavy atom, donor atom, acceptor molecule, acceptor atom, score
      P1  H  6931  6943       L1    13  0.54
      P1  H  6934  6947       L1    13  0.15
      P1  H  7989  7998       L1     3  0.23
      P1  H 10752 10763       L1     6  0.80

> <Gold.Chemscore.Hbond.Weighted>
-8.6439

> <Gold.Chemscore.Metal.Weighted>
-0.0000

> <Gold.Chemscore.Lipo.Weighted>
-5.7309

> <Gold.Chemscore.Internal_Hbond.Weighted>
0.0000

> <Gold.Chemscore.DEClash.Weighted>
0.6945

> <Gold.Chemscore.DEInternal.Weighted>
1.0987

> <Gold.Chemscore.Rot.Weighted>
4.6631

> <Gold.Chemscore.Internal.Correction.Weighted>
   9.000000E+99

> <Gold.Protein.RotatedTorsions>
[ 6907 6896 6895 6894 ] final  148.13 input  -60.11 | X-H torsion
[ 7974 7965 7964 7962 ] final -141.75 input  175.53 | X-H torsion
[ 8008 7997 7996 7995 ] final  154.00 input   59.86 | X-H torsion
[ 10167 10162 10161 10158 ] final    8.90 input  -65.29 | X-H torsion
[ 10718 10713 10712 10709 ] final  -44.15 input   66.30 | X-H torsion
[ 10763 10752 10751 10750 ] final  103.07 input  -60.55 | X-H torsion
[ 11005 11000 10999 10996 ] final  164.47 input  -57.11 | X-H torsion

> <Gold.Protein.ActiveResidues>
 VAL166  LYS551  ARG553  GLY616  TRP617  ASP618  TYR619  PRO620  LYS621  CYS622 
 ASP623  PHE694  ASN695  SER759  ASP760  ASP761  ALA762  ILE779  LEU786  VAL792 
 PHE793  MET794  SER795  GLU796  ALA797  LYS798  CYS799  TRP800  GLU811  SER814 

> <Gold.Protein.RotatedAtoms>
  152.1456  133.4490  159.4787 H   0  0  0  0  0  0  0  0  0  0  0  0  # atno 6907 bound_to 6896
  150.6890  134.2252  159.4422 H   0  0  0  0  0  0  0  0  0  0  0  0  # atno 6908 bound_to 6896
  152.0146  134.9857  160.0619 H   0  0  0  0  0  0  0  0  0  0  0  0  # atno 6909 bound_to 6896
  144.8495  140.6042  143.5399 H   0  0  0  0  0  0  0  0  0  0  0  0  # atno 7974 bound_to 7965
  156.2554  140.1978  156.6577 H   0  0  0  0  0  0  0  0  0  0  0  0  # atno 8008 bound_to 7997
  154.6488  140.0574  156.9957 H   0  0  0  0  0  0  0  0  0  0  0  0  # atno 8009 bound_to 7997
  155.1450  140.3246  155.4446 H   0  0  0  0  0  0  0  0  0  0  0  0  # atno 8010 bound_to 7997
  140.6287  143.8043  150.7266 H   0  0  0  0  0  0  0  0  0  0  0  0  # atno 10167 bound_to 10162
  156.2416  130.4180  149.8754 H   0  0  0  0  0  0  0  0  0  0  0  0  # atno 10718 bound_to 10713
  153.3479  135.3989  155.1623 H   0  0  0  0  0  0  0  0  0  0  0  0  # atno 10763 bound_to 10752
  154.8656  135.3649  154.5260 H   0  0  0  0  0  0  0  0  0  0  0  0  # atno 10764 bound_to 10752
  153.5710  135.7079  153.5565 H   0  0  0  0  0  0  0  0  0  0  0  0  # atno 10765 bound_to 10752
  140.2462  134.8012  157.3458 H   0  0  0  0  0  0  0  0  0  0  0  0  # atno 11005 bound_to 11000
  145.4528  139.1521  143.3909 LP  0  0  0  0  0  0  0  0  0  0  0  0  # atno 17320 bound_to 7965
  146.2773  140.4655  142.8790 LP  0  0  0  0  0  0  0  0  0  0  0  0  # atno 17321 bound_to 7965
  140.1650  143.4243  152.2041 LP  0  0  0  0  0  0  0  0  0  0  0  0  # atno 17342 bound_to 10162
  139.5503  144.7332  151.4454 LP  0  0  0  0  0  0  0  0  0  0  0  0  # atno 17343 bound_to 10162
  156.6334  130.8675  151.3500 LP  0  0  0  0  0  0  0  0  0  0  0  0  # atno 17370 bound_to 10713
  157.7177  130.9518  150.1319 LP  0  0  0  0  0  0  0  0  0  0  0  0  # atno 17371 bound_to 10713
  140.1603  134.4737  155.7899 LP  0  0  0  0  0  0  0  0  0  0  0  0  # atno 17394 bound_to 11000
  141.2206  133.6898  156.7533 LP  0  0  0  0  0  0  0  0  0  0  0  0  # atno 17395 bound_to 11000

$$$$
