AV-unprocessed.smi:2971|AV-procd|sdf|11335|dock3
  -GOLD-   2272016243D 1   1.00000     0.00000
 Structure written by MMmdl.
 37 39  0  0  0  0  0  0  0  0  2 V2000
  153.0696  139.2692  156.3464 O   0  0  0  0  0  0  0  0  0  0  0  0
  151.8213  139.6526  156.8888 C   0  0  1  0  0  0  0  0  0  0  0  0
  152.0574  140.3009  158.2603 C   0  0  0  0  0  0  0  0  0  0  0  0
  152.1203  141.7110  158.0933 O   0  0  0  0  0  0  0  0  0  0  0  0
  152.1724  142.5027  159.2208 C   0  0  0  0  0  0  0  0  0  0  0  0
  152.4948  142.0218  160.5157 C   0  0  0  0  0  0  0  0  0  0  0  0
  152.5262  142.9009  161.6158 C   0  0  0  0  0  0  0  0  0  0  0  0
  152.2379  144.2664  161.4383 C   0  0  0  0  0  0  0  0  0  0  0  0
  151.9163  144.7525  160.1576 C   0  0  0  0  0  0  0  0  0  0  0  0
  151.8828  143.8744  159.0569 C   0  0  0  0  0  0  0  0  0  0  0  0
  151.5714  144.3549  157.8292 F   0  0  0  0  0  0  0  0  0  0  0  0
  151.0965  140.5956  155.9072 C   0  0  0  0  0  0  0  0  0  0  0  0
  150.2204  139.8788  154.9722 N   0  0  0  0  0  0  0  0  0  0  0  0
  150.3501  138.6417  154.4204 C   0  0  0  0  0  0  0  0  0  0  0  0
  149.2689  138.4341  153.6183 N   0  3  0  0  0  0  0  0  0  0  0  0
  148.4370  139.5555  153.6573 C   0  0  0  0  0  0  0  0  0  0  0  0
  147.2303  139.8193  153.0167 C   0  0  0  0  0  0  0  0  0  0  0  0
  146.6359  141.0717  153.2774 C   0  0  0  0  0  0  0  0  0  0  0  0
  147.2402  142.0060  154.1439 C   0  0  0  0  0  0  0  0  0  0  0  0
  148.4646  141.7287  154.7870 C   0  0  0  0  0  0  0  0  0  0  0  0
  149.0439  140.4880  154.5247 C   0  0  0  0  0  0  0  0  0  0  0  0
  152.9343  138.5280  155.7759 H   0  0  0  0  0  0  0  0  0  0  0  0
  151.2348  138.7437  157.0272 H   0  0  0  0  0  0  0  0  0  0  0  0
  151.2333  140.0513  158.9311 H   0  0  0  0  0  0  0  0  0  0  0  0
  152.9809  139.9210  158.7007 H   0  0  0  0  0  0  0  0  0  0  0  0
  152.7208  140.9814  160.6927 H   0  0  0  0  0  0  0  0  0  0  0  0
  152.7722  142.5254  162.5983 H   0  0  0  0  0  0  0  0  0  0  0  0
  152.2631  144.9397  162.2824 H   0  0  0  0  0  0  0  0  0  0  0  0
  151.6952  145.8005  160.0183 H   0  0  0  0  0  0  0  0  0  0  0  0
  150.4943  141.3315  156.4416 H   0  0  0  0  0  0  0  0  0  0  0  0
  151.8193  141.1588  155.3154 H   0  0  0  0  0  0  0  0  0  0  0  0
  151.1615  137.9487  154.5906 H   0  0  0  0  0  0  0  0  0  0  0  0
  146.7649  139.1056  152.3528 H   0  0  0  0  0  0  0  0  0  0  0  0
  145.6974  141.3205  152.8036 H   0  0  0  0  0  0  0  0  0  0  0  0
  146.7544  142.9549  154.3199 H   0  0  0  0  0  0  0  0  0  0  0  0
  148.9199  142.4496  155.4505 H   0  0  0  0  0  0  0  0  0  0  0  0
  149.1123  137.5880  153.0858 H   0  0  0  0  0  0  0  0  0  0  0  0
  1  2  1  0  0  0  0
  1 22  1  0  0  0  0
  2  3  1  0  0  0  0
  2 12  1  0  0  0  0
  2 23  1  0  0  0  0
  3  4  1  0  0  0  0
  3 24  1  0  0  0  0
  3 25  1  0  0  0  0
  4  5  1  0  0  0  0
  5 10  1  0  0  0  0
  5  6  2  0  0  0  0
  6  7  1  0  0  0  0
  6 26  1  0  0  0  0
  7  8  2  0  0  0  0
  7 27  1  0  0  0  0
  8  9  1  0  0  0  0
  8 28  1  0  0  0  0
  9 10  2  0  0  0  0
  9 29  1  0  0  0  0
 10 11  1  0  0  0  0
 12 13  1  0  0  0  0
 12 30  1  0  0  0  0
 12 31  1  0  0  0  0
 13 21  1  0  0  0  0
 13 14  1  0  0  0  0
 14 15  2  0  0  0  0
 14 32  1  0  0  0  0
 15 16  1  0  0  0  0
 15 37  1  0  0  0  0
 16 21  2  0  0  0  0
 16 17  1  0  0  0  0
 17 18  2  0  0  0  0
 17 33  1  0  0  0  0
 18 19  1  0  0  0  0
 18 34  1  0  0  0  0
 19 20  2  0  0  0  0
 19 35  1  0  0  0  0
 20 21  1  0  0  0  0
 20 36  1  0  0  0  0
M  CHG  1  15   1
M  END
> <s_m_source_file>
AV-unprocessed.smi

> <i_m_source_file_index>
2971

> <i_lp_mmshare_version>
43012

> <i_f3d_flags>
0

> <s_epik_input>
W2NIXTFbY0hdW2NIXVtjSF1jKGMxMiluKFtjSF1uMilbQ0gyXVtDQEhdKFtPSF0pW0NIMl1PYzNbY0hdW2NIXVtjSF1bY0hdYzNG

> <s_epik_cmdline>
J2VwaWtfcHl0aG9uJywgJy1waCcsICc3LjAnLCAnLXRuJywgJzgnLCAnLW1hJywgJzIwMCcsICctbWV0YWxfYmluZGluZycsICctaW1hZScsICc8aW5maWxlLm1hZT4nLCAnLW9tYWUnLCAnPG91dGZpbGUubWFlPic=

> <r_lp_tautomer_probability>
1

> <r_epik_Ionization_Penalty>
1.38569

> <r_epik_Ionization_Penalty_Charging>
1.38568

> <r_epik_Ionization_Penalty_Neutral>
2.3993e-06

> <r_epik_State_Penalty>
1.46659

> <r_epik_Charging_Adjusted_Penalty>
2.85227

> <i_epik_Tot_Q>
1

> <i_epik_Tot_abs_Q>
1

> <r_epik_Metal_State_Penalty>
5.50731

> <b_epik_Metal_Only>
0

> <s_lp_Force_Field>
OPLS_2005

> <r_lp_Energy>
19.4551

> <b_lp_Chiralities_Consistent>
1

> <s_lp_Variant>
AV-unprocessed.smi:2971-4

> <Gold.Version>
5.8.1

> <Gold.Id.Protein>
6NUR|6NUR_protein|mol2

> <Gold.PLP.Fitness>
59.9841

> <Gold.PLP.PLP>
-53.8540

> <Gold.PLP.part.hbond>
-2.8006

> <Gold.PLP.part.metal>
0.0000

> <Gold.PLP.part.buried>
1.2955

> <Gold.PLP.part.nonpolar>
-52.2832

> <Gold.PLP.part.repulsive>
0.0645

> <Gold.PLP.ligand.clash>
0.0000

> <Gold.PLP.ligand.torsion>
1.4607

> <Gold.PLP.Chemscore.Hbond>
3.0000

> <Gold.PLP.Chemscore.CHOScore>
0.0000

> <Gold.PLP.Chemscore.Metal>
0.0000

> <Gold.Chemscore.Hbonds>
donor molecule, donor type, donor heavy atom, donor atom, acceptor molecule, acceptor atom, score
      L1  H    15    37       P1  7948  2.00
      P1  H  7997  8009       L1     1  1.00

> <Gold.PLP.Chemscore.Internal.Correction>
0.0515

> <Gold.Rescore>
     Score         DG    S(hbond)    S(metal)    S(lipo)     H(rot)  DE(clash)    DE(int)     intcor
     18.90     -20.46       1.90        0.00     127.67       2.46       0.07       1.48       ----

> <Gold.Chemscore.Fitness>
18.9013

> <Gold.Chemscore.DG>
-20.4561

> <Gold.Chemscore.ZeroCoef>
-5.4800

> <Gold.Chemscore.Hbond>
1.8958

> <Gold.Chemscore.Metal>
0.0000

> <Gold.Chemscore.Lipo>
127.6739

> <Gold.Chemscore.Internal_Hbond>
0.0000

> <Gold.Chemscore.DEClash>
0.0732

> <Gold.Chemscore.DEInternal>
1.4815

> <Gold.Chemscore.Rot>
2.4584

> <Gold.Chemscore.Internal.Correction>
   9.000000E+99

> <Gold.Chemscore.Hbonds>
donor molecule, donor type, donor heavy atom, donor atom, acceptor molecule, acceptor atom, score
      L1  H    15    37       P1  7948  1.00
      P1  H  7997  8009       L1     1  0.93

> <Gold.Chemscore.Hbond.Weighted>
-6.3318

> <Gold.Chemscore.Metal.Weighted>
-0.0000

> <Gold.Chemscore.Lipo.Weighted>
-14.9378

> <Gold.Chemscore.Internal_Hbond.Weighted>
0.0000

> <Gold.Chemscore.DEClash.Weighted>
0.0732

> <Gold.Chemscore.DEInternal.Weighted>
1.4815

> <Gold.Chemscore.Rot.Weighted>
6.2936

> <Gold.Chemscore.Internal.Correction.Weighted>
   9.000000E+99

> <Gold.Protein.RotatedTorsions>
[ 6907 6896 6895 6894 ] final  -19.82 input  -60.11 | X-H torsion
[ 7974 7965 7964 7962 ] final  -61.10 input  175.53 | X-H torsion
[ 8008 7997 7996 7995 ] final  175.82 input   59.86 | X-H torsion
[ 10167 10162 10161 10158 ] final  -41.67 input  -65.29 | X-H torsion
[ 10718 10713 10712 10709 ] final -139.35 input   66.30 | X-H torsion
[ 10763 10752 10751 10750 ] final  176.04 input  -60.55 | X-H torsion
[ 11005 11000 10999 10996 ] final  -64.98 input  -57.11 | X-H torsion

> <Gold.Protein.ActiveResidues>
 VAL166  LYS551  ARG553  GLY616  TRP617  ASP618  TYR619  PRO620  LYS621  CYS622 
 ASP623  PHE694  ASN695  SER759  ASP760  ASP761  ALA762  ILE779  LEU786  VAL792 
 PHE793  MET794  SER795  GLU796  ALA797  LYS798  CYS799  TRP800  GLU811  SER814 

> <Gold.Protein.RotatedAtoms>
  151.2573  135.0642  159.9084 H   0  0  0  0  0  0  0  0  0  0  0  0  # atno 6907 bound_to 6896
  152.5371  134.0268  159.8017 H   0  0  0  0  0  0  0  0  0  0  0  0  # atno 6908 bound_to 6896
  151.0485  133.5594  159.2675 H   0  0  0  0  0  0  0  0  0  0  0  0  # atno 6909 bound_to 6896
  145.8075  140.8618  143.0199 H   0  0  0  0  0  0  0  0  0  0  0  0  # atno 7974 bound_to 7965
  156.0830  140.1399  156.9688 H   0  0  0  0  0  0  0  0  0  0  0  0  # atno 8008 bound_to 7997
  154.4596  140.0948  156.6904 H   0  0  0  0  0  0  0  0  0  0  0  0  # atno 8009 bound_to 7997
  155.5045  140.3452  155.4379 H   0  0  0  0  0  0  0  0  0  0  0  0  # atno 8010 bound_to 7997
  140.6995  143.3081  151.3100 H   0  0  0  0  0  0  0  0  0  0  0  0  # atno 10167 bound_to 10162
  156.3097  130.7475  151.1548 H   0  0  0  0  0  0  0  0  0  0  0  0  # atno 10718 bound_to 10713
  154.4757  135.2773  155.1609 H   0  0  0  0  0  0  0  0  0  0  0  0  # atno 10763 bound_to 10752
  154.3339  135.6184  153.5568 H   0  0  0  0  0  0  0  0  0  0  0  0  # atno 10764 bound_to 10752
  152.9869  135.5772  154.5148 H   0  0  0  0  0  0  0  0  0  0  0  0  # atno 10765 bound_to 10752
  141.1441  133.6674  156.5915 H   0  0  0  0  0  0  0  0  0  0  0  0  # atno 11005 bound_to 11000
  144.6761  140.0348  143.7482 LP  0  0  0  0  0  0  0  0  0  0  0  0  # atno 17320 bound_to 7965
  145.9812  139.2943  143.1040 LP  0  0  0  0  0  0  0  0  0  0  0  0  # atno 17321 bound_to 7965
  139.6494  144.0390  152.2615 LP  0  0  0  0  0  0  0  0  0  0  0  0  # atno 17342 bound_to 10162
  139.9922  144.6353  150.7804 LP  0  0  0  0  0  0  0  0  0  0  0  0  # atno 17343 bound_to 10162
  157.7388  131.0536  150.5272 LP  0  0  0  0  0  0  0  0  0  0  0  0  # atno 17370 bound_to 10713
  156.5410  130.4208  149.6154 LP  0  0  0  0  0  0  0  0  0  0  0  0  # atno 17371 bound_to 10713
  140.3759  134.7565  157.4629 LP  0  0  0  0  0  0  0  0  0  0  0  0  # atno 17394 bound_to 11000
  140.0675  134.5909  155.8679 LP  0  0  0  0  0  0  0  0  0  0  0  0  # atno 17395 bound_to 11000

$$$$
