AV-unprocessed.smi:472|AV-procd|sdf|2660|dock6
  -GOLD-   2262023 73D 1   1.00000     0.00000
 Structure written by MMmdl.
 35 36  0  0  0  0  0  0  0  0  1 V2000
  150.6673  137.1853  154.7041 C   0  0  0  0  0  0  0  0  0  0  0  0
  151.9827  137.1352  155.2266 O   0  0  0  0  0  0  0  0  0  0  0  0
  152.4209  138.3888  155.7242 C   0  0  0  0  0  0  0  0  0  0  0  0
  151.6117  138.7712  156.9722 C   0  0  0  0  0  0  0  0  0  0  0  0
  151.3738  140.2098  157.0535 N   0  0  0  0  0  0  0  0  0  0  0  0
  150.7385  140.9886  156.1433 C   0  0  0  0  0  0  0  0  0  0  0  0
  150.2289  140.4309  154.9755 N   0  0  0  0  0  0  0  0  0  0  0  0
  149.5562  141.1195  153.9614 N   0  0  0  0  0  0  0  0  0  0  0  0
  150.6630  142.2819  156.4665 N   0  0  0  0  0  0  0  0  0  0  0  0
  151.3154  142.3302  157.6908 C   0  0  0  0  0  0  0  0  0  0  0  0
  151.7522  141.1022  158.0595 C   0  0  0  0  0  0  0  0  0  0  0  0
  152.4900  140.8646  159.3063 C   0  0  0  0  0  0  0  0  0  0  0  0
  152.8863  139.7408  159.6190 O   0  0  0  0  0  0  0  0  0  0  0  0
  152.6901  141.9895  160.0612 N   0  0  0  0  0  0  0  0  0  0  0  0
  153.4279  141.7911  161.3233 C   0  0  0  0  0  0  0  0  0  0  0  0
  152.2690  143.2641  159.7207 C   0  0  0  0  0  0  0  0  0  0  0  0
  152.5038  144.2366  160.4429 O   0  0  0  0  0  0  0  0  0  0  0  0
  151.5766  143.4309  158.5473 N   0  0  0  0  0  0  0  0  0  0  0  0
  151.1065  144.7636  158.1581 C   0  0  0  0  0  0  0  0  0  0  0  0
  150.3836  136.2003  154.3335 H   0  0  0  0  0  0  0  0  0  0  0  0
  150.5992  137.8899  153.8744 H   0  0  0  0  0  0  0  0  0  0  0  0
  149.9494  137.4764  155.4719 H   0  0  0  0  0  0  0  0  0  0  0  0
  153.4824  138.3378  155.9712 H   0  0  0  0  0  0  0  0  0  0  0  0
  152.3012  139.1572  154.9592 H   0  0  0  0  0  0  0  0  0  0  0  0
  150.6529  138.2519  156.9665 H   0  0  0  0  0  0  0  0  0  0  0  0
  152.1159  138.4321  157.8753 H   0  0  0  0  0  0  0  0  0  0  0  0
  150.3723  139.4412  154.8340 H   0  0  0  0  0  0  0  0  0  0  0  0
  150.0334  142.0017  153.7862 H   0  0  0  0  0  0  0  0  0  0  0  0
  149.5868  140.5627  153.1091 H   0  0  0  0  0  0  0  0  0  0  0  0
  153.4869  142.6695  161.9663 H   0  0  0  0  0  0  0  0  0  0  0  0
  154.4538  141.4831  161.1145 H   0  0  0  0  0  0  0  0  0  0  0  0
  152.9601  141.0099  161.9253 H   0  0  0  0  0  0  0  0  0  0  0  0
  150.4763  145.1931  158.9385 H   0  0  0  0  0  0  0  0  0  0  0  0
  150.5178  144.7531  157.2408 H   0  0  0  0  0  0  0  0  0  0  0  0
  151.9522  145.4333  157.9959 H   0  0  0  0  0  0  0  0  0  0  0  0
  1  2  1  0  0  0  0
  1 20  1  0  0  0  0
  1 21  1  0  0  0  0
  1 22  1  0  0  0  0
  2  3  1  0  0  0  0
  3  4  1  0  0  0  0
  3 23  1  0  0  0  0
  3 24  1  0  0  0  0
  4  5  1  0  0  0  0
  4 25  1  0  0  0  0
  4 26  1  0  0  0  0
  5 11  1  0  0  0  0
  5  6  1  0  0  0  0
  6  7  1  0  0  0  0
  6  9  2  0  0  0  0
  7  8  1  0  0  0  0
  7 27  1  0  0  0  0
  8 28  1  0  0  0  0
  8 29  1  0  0  0  0
  9 10  1  0  0  0  0
 10 18  1  0  0  0  0
 10 11  2  0  0  0  0
 11 12  1  0  0  0  0
 12 13  2  0  0  0  0
 12 14  1  0  0  0  0
 14 15  1  0  0  0  0
 14 16  1  0  0  0  0
 15 30  1  0  0  0  0
 15 31  1  0  0  0  0
 15 32  1  0  0  0  0
 16 17  2  0  0  0  0
 16 18  1  0  0  0  0
 18 19  1  0  0  0  0
 19 33  1  0  0  0  0
 19 34  1  0  0  0  0
 19 35  1  0  0  0  0
M  END
> <s_m_source_file>
AV-unprocessed.smi

> <i_m_source_file_index>
472

> <i_lp_mmshare_version>
43012

> <i_f3d_flags>
0

> <s_epik_input>
W0NIM11PW0NIMl1bQ0gyXW4oYyhuMSlbTkhdW05IMl0pYyhjMTIpYyg9TyluKFtDSDNdKWMoPU8pbjJbQ0gzXQ==

> <s_epik_cmdline>
J2VwaWtfcHl0aG9uJywgJy1waCcsICc3LjAnLCAnLXRuJywgJzgnLCAnLW1hJywgJzIwMCcsICctbWV0YWxfYmluZGluZycsICctaW1hZScsICc8aW5maWxlLm1hZT4nLCAnLW9tYWUnLCAnPG91dGZpbGUubWFlPic=

> <r_lp_tautomer_probability>
1

> <r_epik_Ionization_Penalty>
0.000822794

> <r_epik_Ionization_Penalty_Charging>
3.05595e-09

> <r_epik_Ionization_Penalty_Neutral>
0.000822791

> <r_epik_State_Penalty>
-0

> <r_epik_Charging_Adjusted_Penalty>
3.05595e-09

> <i_epik_Tot_Q>
0

> <i_epik_Tot_abs_Q>
0

> <r_epik_Metal_State_Penalty>
-0

> <b_epik_Metal_Only>
0

> <s_lp_Force_Field>
OPLS_2005

> <r_lp_Energy>
30.834

> <b_lp_Chiralities_Consistent>
1

> <s_lp_Variant>
AV-unprocessed.smi:472-1

> <Gold.Version>
5.8.1

> <Gold.Id.Protein>
6NUR|6NUR_protein|mol2

> <Gold.PLP.Fitness>
43.0330

> <Gold.PLP.PLP>
-37.7545

> <Gold.PLP.part.hbond>
-4.0000

> <Gold.PLP.part.metal>
0.0000

> <Gold.PLP.part.buried>
-5.5974

> <Gold.PLP.part.nonpolar>
-30.6417

> <Gold.PLP.part.repulsive>
1.4521

> <Gold.PLP.ligand.clash>
0.0000

> <Gold.PLP.ligand.torsion>
0.2539

> <Gold.PLP.Chemscore.Hbond>
1.9280

> <Gold.PLP.Chemscore.CHOScore>
0.0000

> <Gold.PLP.Chemscore.Metal>
0.0000

> <Gold.Chemscore.Hbonds>
donor molecule, donor type, donor heavy atom, donor atom, acceptor molecule, acceptor atom, score
      L1  H     8    29       P1  7957  1.00
      P1  H 10752 10764       L1     2  0.94

> <Gold.PLP.Chemscore.Internal.Correction>
0.0023

> <Gold.Rescore>
     Score         DG    S(hbond)    S(metal)    S(lipo)     H(rot)  DE(clash)    DE(int)     intcor
     12.79     -13.05       1.94        0.00      46.44       1.70       0.00       0.26       ----

> <Gold.Chemscore.Fitness>
12.7862

> <Gold.Chemscore.DG>
-13.0452

> <Gold.Chemscore.ZeroCoef>
-5.4800

> <Gold.Chemscore.Hbond>
1.9404

> <Gold.Chemscore.Metal>
0.0000

> <Gold.Chemscore.Lipo>
46.4387

> <Gold.Chemscore.Internal_Hbond>
0.0000

> <Gold.Chemscore.DEClash>
0.0000

> <Gold.Chemscore.DEInternal>
0.2590

> <Gold.Chemscore.Rot>
1.6988

> <Gold.Chemscore.Internal.Correction>
   9.000000E+99

> <Gold.Chemscore.Hbonds>
donor molecule, donor type, donor heavy atom, donor atom, acceptor molecule, acceptor atom, score
      L1  H     8    29       P1  7957  0.94
      P1  H 10752 10764       L1     2  0.77

> <Gold.Chemscore.Hbond.Weighted>
-6.4808

> <Gold.Chemscore.Metal.Weighted>
-0.0000

> <Gold.Chemscore.Lipo.Weighted>
-5.4333

> <Gold.Chemscore.Internal_Hbond.Weighted>
0.0000

> <Gold.Chemscore.DEClash.Weighted>
0.0000

> <Gold.Chemscore.DEInternal.Weighted>
0.2590

> <Gold.Chemscore.Rot.Weighted>
4.3490

> <Gold.Chemscore.Internal.Correction.Weighted>
   9.000000E+99

> <Gold.Protein.RotatedTorsions>
[ 6907 6896 6895 6894 ] final  -43.32 input  -60.11 | X-H torsion
[ 7974 7965 7964 7962 ] final  -64.83 input  175.53 | X-H torsion
[ 8008 7997 7996 7995 ] final -157.13 input   59.86 | X-H torsion
[ 10167 10162 10161 10158 ] final   69.82 input  -65.29 | X-H torsion
[ 10718 10713 10712 10709 ] final   11.97 input   66.30 | X-H torsion
[ 10763 10752 10751 10750 ] final  -57.73 input  -60.55 | X-H torsion
[ 11005 11000 10999 10996 ] final  -45.36 input  -57.11 | X-H torsion

> <Gold.Protein.ActiveResidues>
 VAL166  LYS551  ARG553  GLY616  TRP617  ASP618  TYR619  PRO620  LYS621  CYS622 
 ASP623  PHE694  ASN695  SER759  ASP760  ASP761  ALA762  ILE779  LEU786  VAL792 
 PHE793  MET794  SER795  GLU796  ALA797  LYS798  CYS799  TRP800  GLU811  SER814 

> <Gold.Protein.RotatedAtoms>
  150.9453  134.8858  159.7637 H   0  0  0  0  0  0  0  0  0  0  0  0  # atno 6907 bound_to 6896
  152.5097  134.3883  159.9385 H   0  0  0  0  0  0  0  0  0  0  0  0  # atno 6908 bound_to 6896
  151.3902  133.3751  159.2755 H   0  0  0  0  0  0  0  0  0  0  0  0  # atno 6909 bound_to 6896
  145.7619  140.8857  143.0425 H   0  0  0  0  0  0  0  0  0  0  0  0  # atno 7974 bound_to 7965
  155.7278  140.0798  157.2302 H   0  0  0  0  0  0  0  0  0  0  0  0  # atno 8008 bound_to 7997
  154.4037  140.1601  156.2529 H   0  0  0  0  0  0  0  0  0  0  0  0  # atno 8009 bound_to 7997
  155.9137  140.3402  155.6121 H   0  0  0  0  0  0  0  0  0  0  0  0  # atno 8010 bound_to 7997
  140.0636  144.5212  150.7276 H   0  0  0  0  0  0  0  0  0  0  0  0  # atno 10167 bound_to 10162
  157.0033  130.6088  149.5699 H   0  0  0  0  0  0  0  0  0  0  0  0  # atno 10718 bound_to 10713
  154.2270  135.6367  153.5163 H   0  0  0  0  0  0  0  0  0  0  0  0  # atno 10763 bound_to 10752
  152.9957  135.5510  154.6053 H   0  0  0  0  0  0  0  0  0  0  0  0  # atno 10764 bound_to 10752
  154.5527  135.2903  155.0968 H   0  0  0  0  0  0  0  0  0  0  0  0  # atno 10765 bound_to 10752
  141.0510  133.6743  156.3002 H   0  0  0  0  0  0  0  0  0  0  0  0  # atno 11005 bound_to 11000
  144.6829  139.9734  143.7482 LP  0  0  0  0  0  0  0  0  0  0  0  0  # atno 17320 bound_to 7965
  146.0256  139.3289  143.0786 LP  0  0  0  0  0  0  0  0  0  0  0  0  # atno 17321 bound_to 7965
  140.7160  143.2545  151.4433 LP  0  0  0  0  0  0  0  0  0  0  0  0  # atno 17342 bound_to 10162
  139.5878  144.1565  152.2051 LP  0  0  0  0  0  0  0  0  0  0  0  0  # atno 17343 bound_to 10162
  156.0163  130.5257  150.8143 LP  0  0  0  0  0  0  0  0  0  0  0  0  # atno 17370 bound_to 10713
  157.5374  131.0939  150.9874 LP  0  0  0  0  0  0  0  0  0  0  0  0  # atno 17371 bound_to 10713
  140.6055  134.5512  157.5525 LP  0  0  0  0  0  0  0  0  0  0  0  0  # atno 17394 bound_to 11000
  139.9351  134.7891  156.0826 LP  0  0  0  0  0  0  0  0  0  0  0  0  # atno 17395 bound_to 11000

$$$$
