AV-unprocessed.smi:1240|AV-procd|sdf|5210|dock2
  -GOLD-   22720 4303D 1   1.00000     0.00000
 Structure written by MMmdl.
 49 51  0  0  0  0  0  0  0  0  3 V2000
  144.8572  137.4644  151.9754 O   0  0  0  0  0  0  0  0  0  0  0  0
  146.0557  137.2322  151.8199 C   0  0  0  0  0  0  0  0  0  0  0  0
  147.0068  138.1700  151.9367 N   0  0  0  0  0  0  0  0  0  0  0  0
  146.7561  139.5757  152.2369 C   0  0  0  0  0  0  0  0  0  0  0  0
  147.0060  139.9561  153.7248 C   0  0  1  0  0  0  0  0  0  0  0  0
  148.4640  140.4081  154.0222 C   0  0  1  0  0  0  0  0  0  0  0  0
  148.7960  140.4928  155.5037 C   0  0  0  0  0  0  0  0  0  0  0  0
  150.3195  140.5082  155.4956 C   0  0  0  0  0  0  0  0  0  0  0  0
  150.6975  139.6940  154.3931 O   0  0  0  0  0  0  0  0  0  0  0  0
  149.5713  139.4541  153.5557 C   0  0  0  0  0  0  0  0  0  0  0  0
  146.0455  140.9981  154.1982 N   0  3  0  0  0  0  0  0  0  0  0  0
  145.6239  140.9009  155.6192 C   0  0  0  0  0  0  0  0  0  0  0  0
  144.5120  141.9228  155.9076 C   0  0  0  0  0  0  0  0  0  0  0  0
  144.9756  143.2306  155.5937 O   0  0  0  0  0  0  0  0  0  0  0  0
  145.3126  143.3641  154.2177 C   0  0  0  0  0  0  0  0  0  0  0  0
  146.4466  142.3869  153.8639 C   0  0  0  0  0  0  0  0  0  0  0  0
  146.5870  136.0290  151.5415 N   0  0  0  0  0  0  0  0  0  0  0  0
  145.9202  134.7917  151.3256 C   0  0  0  0  0  0  0  0  0  0  0  0
  146.7188  133.6622  151.0378 C   0  0  0  0  0  0  0  0  0  0  0  0
  146.1031  132.4165  150.7993 C   0  0  0  0  0  0  0  0  0  0  0  0
  144.7575  132.3133  150.8379 N   0  3  0  0  0  0  0  0  0  0  0  0
  143.9519  133.3659  151.0953 C   0  0  0  0  0  0  0  0  0  0  0  0
  144.5102  134.6369  151.3422 C   0  0  0  0  0  0  0  0  0  0  0  0
  147.9694  137.8976  151.7981 H   0  0  0  0  0  0  0  0  0  0  0  0
  147.4043  140.1612  151.5849 H   0  0  0  0  0  0  0  0  0  0  0  0
  145.7337  139.8107  151.9393 H   0  0  0  0  0  0  0  0  0  0  0  0
  146.8240  139.0721  154.3379 H   0  0  0  0  0  0  0  0  0  0  0  0
  148.6491  141.3842  153.5718 H   0  0  0  0  0  0  0  0  0  0  0  0
  148.3739  141.3717  155.9918 H   0  0  0  0  0  0  0  0  0  0  0  0
  148.4354  139.6057  156.0273 H   0  0  0  0  0  0  0  0  0  0  0  0
  150.6889  141.5201  155.3250 H   0  0  0  0  0  0  0  0  0  0  0  0
  150.7476  140.1420  156.4289 H   0  0  0  0  0  0  0  0  0  0  0  0
  149.2694  138.4140  153.6852 H   0  0  0  0  0  0  0  0  0  0  0  0
  149.8369  139.6024  152.5089 H   0  0  0  0  0  0  0  0  0  0  0  0
  145.2622  139.8981  155.8440 H   0  0  0  0  0  0  0  0  0  0  0  0
  146.4690  141.0966  156.2801 H   0  0  0  0  0  0  0  0  0  0  0  0
  143.6119  141.6934  155.3349 H   0  0  0  0  0  0  0  0  0  0  0  0
  144.2361  141.8898  156.9617 H   0  0  0  0  0  0  0  0  0  0  0  0
  144.4338  143.1826  153.5970 H   0  0  0  0  0  0  0  0  0  0  0  0
  145.6289  144.3901  154.0292 H   0  0  0  0  0  0  0  0  0  0  0  0
  147.3503  142.6608  154.4088 H   0  0  0  0  0  0  0  0  0  0  0  0
  146.6764  142.4656  152.8008 H   0  0  0  0  0  0  0  0  0  0  0  0
  147.5955  135.9837  151.5266 H   0  0  0  0  0  0  0  0  0  0  0  0
  147.7955  133.7441  151.0034 H   0  0  0  0  0  0  0  0  0  0  0  0
  146.6426  131.5072  150.5779 H   0  0  0  0  0  0  0  0  0  0  0  0
  142.8908  133.1635  151.0897 H   0  0  0  0  0  0  0  0  0  0  0  0
  143.8444  135.4661  151.5252 H   0  0  0  0  0  0  0  0  0  0  0  0
  145.2084  140.8366  153.6565 H   0  0  0  0  0  0  0  0  0  0  0  0
  144.3309  131.4033  150.6600 H   0  0  0  0  0  0  0  0  0  0  0  0
  1  2  2  0  0  0  0
  2  3  1  0  0  0  0
  2 17  1  0  0  0  0
  3  4  1  0  0  0  0
  3 24  1  0  0  0  0
  4  5  1  0  0  0  0
  4 25  1  0  0  0  0
  4 26  1  0  0  0  0
  5  6  1  0  0  0  0
  5 11  1  0  0  0  0
  5 27  1  0  0  0  0
  6 10  1  0  0  0  0
  6  7  1  0  0  0  0
  6 28  1  0  0  0  0
  7  8  1  0  0  0  0
  7 29  1  0  0  0  0
  7 30  1  0  0  0  0
  8  9  1  0  0  0  0
  8 31  1  0  0  0  0
  8 32  1  0  0  0  0
  9 10  1  0  0  0  0
 10 33  1  0  0  0  0
 10 34  1  0  0  0  0
 11 16  1  0  0  0  0
 11 12  1  0  0  0  0
 11 48  1  0  0  0  0
 12 13  1  0  0  0  0
 12 35  1  0  0  0  0
 12 36  1  0  0  0  0
 13 14  1  0  0  0  0
 13 37  1  0  0  0  0
 13 38  1  0  0  0  0
 14 15  1  0  0  0  0
 15 16  1  0  0  0  0
 15 39  1  0  0  0  0
 15 40  1  0  0  0  0
 16 41  1  0  0  0  0
 16 42  1  0  0  0  0
 17 18  1  0  0  0  0
 17 43  1  0  0  0  0
 18 23  1  0  0  0  0
 18 19  2  0  0  0  0
 19 20  1  0  0  0  0
 19 44  1  0  0  0  0
 20 21  2  0  0  0  0
 20 45  1  0  0  0  0
 21 22  1  0  0  0  0
 21 49  1  0  0  0  0
 22 23  2  0  0  0  0
 22 46  1  0  0  0  0
 23 47  1  0  0  0  0
M  CHG  1  11   1
M  CHG  1  21   1
M  END
> <s_m_source_file>
AV-unprocessed.smi

> <i_m_source_file_index>
1240

> <i_lp_mmshare_version>
43012

> <i_f3d_flags>
0

> <s_epik_input>
W2NIXTFbY0hdbltjSF1bY0hdYzFbTkhdQyg9TylbTkhdW0NIMl1bQ0BIXShbQ0BASF0yW0NIMl1bQ0gyXU9bQ0gyXTIpTjNbQ0gyXVtDSDJdT1tDSDJdW0NIMl0z

> <s_epik_cmdline>
J2VwaWtfcHl0aG9uJywgJy1waCcsICc3LjAnLCAnLXRuJywgJzgnLCAnLW1hJywgJzIwMCcsICctbWV0YWxfYmluZGluZycsICctaW1hZScsICc8aW5maWxlLm1hZT4nLCAnLW9tYWUnLCAnPG91dGZpbGUubWFlPic=

> <r_epik_Ionization_Penalty>
2.08105

> <r_epik_Ionization_Penalty_Charging>
2.08103

> <r_epik_Ionization_Penalty_Neutral>
2.04144e-05

> <r_epik_State_Penalty>
2.15598

> <r_epik_Charging_Adjusted_Penalty>
4.23701

> <i_epik_Tot_Q>
2

> <i_epik_Tot_abs_Q>
2

> <r_epik_Metal_State_Penalty>
2.25158

> <b_epik_Metal_Only>
0

> <s_lp_Force_Field>
OPLS_2005

> <r_lp_Energy>
49.3852

> <b_lp_Chiralities_Consistent>
1

> <s_lp_Variant>
AV-unprocessed.smi:1240-16

> <Gold.Version>
5.8.1

> <Gold.Id.Protein>
6NUR|6NUR_protein|mol2

> <Gold.PLP.Fitness>
47.6839

> <Gold.PLP.PLP>
-35.1221

> <Gold.PLP.part.hbond>
-3.9531

> <Gold.PLP.part.metal>
0.0000

> <Gold.PLP.part.buried>
-3.5614

> <Gold.PLP.part.nonpolar>
-30.9901

> <Gold.PLP.part.repulsive>
2.3747

> <Gold.PLP.ligand.clash>
0.0000

> <Gold.PLP.ligand.torsion>
1.1930

> <Gold.PLP.Chemscore.Hbond>
4.8960

> <Gold.PLP.Chemscore.CHOScore>
0.0000

> <Gold.PLP.Chemscore.Metal>
0.0000

> <Gold.Chemscore.Hbonds>
donor molecule, donor type, donor heavy atom, donor atom, acceptor molecule, acceptor atom, score
      L1  H     3    24       P1  7948  0.74
      L1  H    11    48       P1 10175  2.00
      L1  H    17    43       P1  7948  0.62
      P1  H  7989  7998       L1     9  0.95

> <Gold.PLP.Chemscore.Internal.Correction>
0.2597

> <Gold.Rescore>
     Score         DG    S(hbond)    S(metal)    S(lipo)     H(rot)  DE(clash)    DE(int)     intcor
     15.61     -21.39       2.97        0.00      89.22       1.74       3.50       2.28       ----

> <Gold.Chemscore.Fitness>
15.6111

> <Gold.Chemscore.DG>
-21.3914

> <Gold.Chemscore.ZeroCoef>
-5.4800

> <Gold.Chemscore.Hbond>
2.9739

> <Gold.Chemscore.Metal>
0.0000

> <Gold.Chemscore.Lipo>
89.2159

> <Gold.Chemscore.Internal_Hbond>
0.0000

> <Gold.Chemscore.DEClash>
3.4965

> <Gold.Chemscore.DEInternal>
2.2837

> <Gold.Chemscore.Rot>
1.7421

> <Gold.Chemscore.Internal.Correction>
   9.000000E+99

> <Gold.Chemscore.Hbonds>
donor molecule, donor type, donor heavy atom, donor atom, acceptor molecule, acceptor atom, score
      L1  H     3    24       P1  7948  0.74
      L1  H    11    48       P1 10175  0.87
      L1  H    17    43       P1  7948  0.62
      P1  H  7989  7998       L1     9  0.09

> <Gold.Chemscore.Hbond.Weighted>
-9.9328

> <Gold.Chemscore.Metal.Weighted>
-0.0000

> <Gold.Chemscore.Lipo.Weighted>
-10.4383

> <Gold.Chemscore.Internal_Hbond.Weighted>
0.0000

> <Gold.Chemscore.DEClash.Weighted>
3.4965

> <Gold.Chemscore.DEInternal.Weighted>
2.2837

> <Gold.Chemscore.Rot.Weighted>
4.4597

> <Gold.Chemscore.Internal.Correction.Weighted>
   9.000000E+99

> <Gold.Protein.RotatedTorsions>
[ 6907 6896 6895 6894 ] final -161.72 input  -60.11 | X-H torsion
[ 7974 7965 7964 7962 ] final  118.77 input  175.53 | X-H torsion
[ 8008 7997 7996 7995 ] final   -5.84 input   59.86 | X-H torsion
[ 10167 10162 10161 10158 ] final  -67.42 input  -65.29 | X-H torsion
[ 10718 10713 10712 10709 ] final    9.40 input   66.30 | X-H torsion
[ 10763 10752 10751 10750 ] final -165.37 input  -60.55 | X-H torsion
[ 11005 11000 10999 10996 ] final  155.78 input  -57.11 | X-H torsion

> <Gold.Protein.ActiveResidues>
 VAL166  LYS551  ARG553  GLY616  TRP617  ASP618  TYR619  PRO620  LYS621  CYS622 
 ASP623  PHE694  ASN695  SER759  ASP760  ASP761  ALA762  ILE779  LEU786  VAL792 
 PHE793  MET794  SER795  GLU796  ALA797  LYS798  CYS799  TRP800  GLU811  SER814 

> <Gold.Protein.RotatedAtoms>
  151.3690  133.3862  159.2697 H   0  0  0  0  0  0  0  0  0  0  0  0  # atno 6907 bound_to 6896
  150.9666  134.9046  159.7773 H   0  0  0  0  0  0  0  0  0  0  0  0  # atno 6908 bound_to 6896
  152.5169  134.3651  159.9350 H   0  0  0  0  0  0  0  0  0  0  0  0  # atno 6909 bound_to 6896
  145.1511  139.3210  143.4566 H   0  0  0  0  0  0  0  0  0  0  0  0  # atno 7974 bound_to 7965
  154.5998  140.2448  155.7808 H   0  0  0  0  0  0  0  0  0  0  0  0  # atno 8008 bound_to 7997
  156.2303  140.2969  156.0124 H   0  0  0  0  0  0  0  0  0  0  0  0  # atno 8009 bound_to 7997
  155.2231  140.0401  157.2942 H   0  0  0  0  0  0  0  0  0  0  0  0  # atno 8010 bound_to 7997
  140.5584  143.2312  151.6775 H   0  0  0  0  0  0  0  0  0  0  0  0  # atno 10167 bound_to 10162
  156.9658  130.5950  149.5665 H   0  0  0  0  0  0  0  0  0  0  0  0  # atno 10718 bound_to 10713
  154.6938  135.2975  154.9441 H   0  0  0  0  0  0  0  0  0  0  0  0  # atno 10763 bound_to 10752
  154.0396  135.6659  153.4792 H   0  0  0  0  0  0  0  0  0  0  0  0  # atno 10764 bound_to 10752
  153.0631  135.5104  154.8044 H   0  0  0  0  0  0  0  0  0  0  0  0  # atno 10765 bound_to 10752
  140.1614  134.8607  157.2578 H   0  0  0  0  0  0  0  0  0  0  0  0  # atno 11005 bound_to 11000
  146.3494  140.1586  142.8591 LP  0  0  0  0  0  0  0  0  0  0  0  0  # atno 17320 bound_to 7965
  145.0429  140.8959  143.5041 LP  0  0  0  0  0  0  0  0  0  0  0  0  # atno 17321 bound_to 7965
  139.5059  144.3702  152.0477 LP  0  0  0  0  0  0  0  0  0  0  0  0  # atno 17342 bound_to 10162
  140.2826  144.3843  150.6114 LP  0  0  0  0  0  0  0  0  0  0  0  0  # atno 17343 bound_to 10162
  156.0303  130.5395  150.8517 LP  0  0  0  0  0  0  0  0  0  0  0  0  # atno 17370 bound_to 10713
  157.5626  131.0946  150.9536 LP  0  0  0  0  0  0  0  0  0  0  0  0  # atno 17371 bound_to 10713
  140.2486  134.3710  155.7451 LP  0  0  0  0  0  0  0  0  0  0  0  0  # atno 17394 bound_to 11000
  141.2209  133.7304  156.8900 LP  0  0  0  0  0  0  0  0  0  0  0  0  # atno 17395 bound_to 11000

$$$$
