AV-unprocessed.smi:2226|AV-procd|sdf|9005|dock3
  -GOLD-   2272012213D 1   1.00000     0.00000
 Structure written by MMmdl.
 41 43  0  0  0  0  0  0  0  0  3 V2000
  143.3072  132.4185  151.3918 C   0  0  0  0  0  0  0  0  0  0  0  0
  144.0506  133.2927  152.3304 N   0  3  2  0  0  0  0  0  0  0  0  0
  143.6469  134.7190  152.3047 C   0  0  2  0  0  0  0  0  0  0  0  0
  144.0919  135.4104  150.9914 C   0  0  0  0  0  0  0  0  0  0  0  0
  145.5803  135.2157  150.6494 C   0  0  0  0  0  0  0  0  0  0  0  0
  146.0696  133.7843  150.9307 C   0  0  0  0  0  0  0  0  0  0  0  0
  145.5267  133.1804  152.2495 C   0  0  1  0  0  0  0  0  0  0  0  0
  146.1510  133.7595  153.5407 C   0  0  0  0  0  0  0  0  0  0  0  0
  145.6062  135.1424  153.9971 C   0  0  1  0  0  0  0  0  0  0  0  0
  146.4688  136.2601  153.6172 N   0  0  0  0  0  0  0  0  0  0  0  0
  146.3327  137.5299  154.0309 C   0  0  0  0  0  0  0  0  0  0  0  0
  145.4554  137.9027  154.8100 O   0  0  0  0  0  0  0  0  0  0  0  0
  147.2653  138.3300  153.4917 N   0  0  0  0  0  0  0  0  0  0  0  0
  147.4108  139.7132  153.7455 C   0  0  0  0  0  0  0  0  0  0  0  0
  146.4418  140.6095  153.5672 N   0  3  0  0  0  0  0  0  0  0  0  0
  146.9230  141.8507  153.9029 C   0  0  0  0  0  0  0  0  0  0  0  0
  148.2269  141.6539  154.2897 C   0  0  0  0  0  0  0  0  0  0  0  0
  148.5484  140.3146  154.1964 O   0  0  0  0  0  0  0  0  0  0  0  0
  144.1290  135.4038  153.6051 C   0  0  0  0  0  0  0  0  0  0  0  0
  143.4864  132.6812  150.3495 H   0  0  0  0  0  0  0  0  0  0  0  0
  142.2351  132.4879  151.5772 H   0  0  0  0  0  0  0  0  0  0  0  0
  143.5980  131.3770  151.5316 H   0  0  0  0  0  0  0  0  0  0  0  0
  142.5567  134.7552  152.3286 H   0  0  0  0  0  0  0  0  0  0  0  0
  143.4973  135.0122  150.1687 H   0  0  0  0  0  0  0  0  0  0  0  0
  143.8563  136.4745  151.0278 H   0  0  0  0  0  0  0  0  0  0  0  0
  145.7454  135.4556  149.5986 H   0  0  0  0  0  0  0  0  0  0  0  0
  146.1896  135.9330  151.1882 H   0  0  0  0  0  0  0  0  0  0  0  0
  145.7626  133.1474  150.1008 H   0  0  0  0  0  0  0  0  0  0  0  0
  147.1597  133.7581  150.9261 H   0  0  0  0  0  0  0  0  0  0  0  0
  145.7777  132.1185  152.2393 H   0  0  0  0  0  0  0  0  0  0  0  0
  145.9295  133.0522  154.3416 H   0  0  0  0  0  0  0  0  0  0  0  0
  147.2389  133.7628  153.4661 H   0  0  0  0  0  0  0  0  0  0  0  0
  145.6264  135.1414  155.0890 H   0  0  0  0  0  0  0  0  0  0  0  0
  147.2199  136.0497  152.9759 H   0  0  0  0  0  0  0  0  0  0  0  0
  145.4970  140.4461  153.2421 H   0  0  0  0  0  0  0  0  0  0  0  0
  146.3026  142.7330  153.8343 H   0  0  0  0  0  0  0  0  0  0  0  0
  149.0104  142.3125  154.6356 H   0  0  0  0  0  0  0  0  0  0  0  0
  143.9152  136.4733  153.5767 H   0  0  0  0  0  0  0  0  0  0  0  0
  143.5093  135.0153  154.4148 H   0  0  0  0  0  0  0  0  0  0  0  0
  143.7997  132.9525  153.2478 H   0  0  0  0  0  0  0  0  0  0  0  0
  147.9284  137.9166  152.8530 H   0  0  0  0  0  0  0  0  0  0  0  0
  1  2  1  0  0  0  0
  1 20  1  0  0  0  0
  1 21  1  0  0  0  0
  1 22  1  0  0  0  0
  2  7  1  0  0  0  0
  2  3  1  0  0  0  0
  2 40  1  0  0  0  0
  3 19  1  0  0  0  0
  3  4  1  0  0  0  0
  3 23  1  0  0  0  0
  4  5  1  0  0  0  0
  4 24  1  0  0  0  0
  4 25  1  0  0  0  0
  5  6  1  0  0  0  0
  5 26  1  0  0  0  0
  5 27  1  0  0  0  0
  6  7  1  0  0  0  0
  6 28  1  0  0  0  0
  6 29  1  0  0  0  0
  7  8  1  0  0  0  0
  7 30  1  0  0  0  0
  8  9  1  0  0  0  0
  8 31  1  0  0  0  0
  8 32  1  0  0  0  0
  9 10  1  0  0  0  0
  9 19  1  0  0  0  0
  9 33  1  0  0  0  0
 10 34  1  0  0  0  0
 10 11  1  0  0  0  0
 11 13  1  0  0  0  0
 11 12  2  0  0  0  0
 13 14  1  0  0  0  0
 13 41  1  0  0  0  0
 14 18  1  0  0  0  0
 14 15  2  0  0  0  0
 15 35  1  0  0  0  0
 15 16  1  0  0  0  0
 16 36  1  0  0  0  0
 16 17  2  0  0  0  0
 17 37  1  0  0  0  0
 17 18  1  0  0  0  0
 19 38  1  0  0  0  0
 19 39  1  0  0  0  0
M  CHG  1   2   1
M  CHG  1  15   1
M  END
> <s_m_source_file>
AV-unprocessed.smi

> <i_m_source_file_index>
2226

> <i_lp_mmshare_version>
43012

> <i_f3d_flags>
0

> <s_epik_input>
W0NIMl0xW0NIMl1bQ0gyXVtDQEhdKE4oW0NIM10pW0NIXTEyKVtDSDJdW0NASF0oW0NIMl0yKVtOSF1DKD1PKVtOSF1jM25bY0hdW2NIXW8z

> <s_epik_cmdline>
J2VwaWtfcHl0aG9uJywgJy1waCcsICc3LjAnLCAnLXRuJywgJzgnLCAnLW1hJywgJzIwMCcsICctbWV0YWxfYmluZGluZycsICctaW1hZScsICc8aW5maWxlLm1hZT4nLCAnLW9tYWUnLCAnPG91dGZpbGUubWFlPic=

> <r_epik_Ionization_Penalty>
6.92532

> <r_epik_Ionization_Penalty_Charging>
6.82059

> <r_epik_Ionization_Penalty_Neutral>
0.104727

> <r_epik_State_Penalty>
2.17671

> <r_epik_Charging_Adjusted_Penalty>
8.99731

> <i_epik_Tot_Q>
2

> <i_epik_Tot_abs_Q>
2

> <r_epik_Metal_State_Penalty>
2.20618

> <b_epik_Metal_Only>
0

> <s_lp_Force_Field>
OPLS_2005

> <r_lp_Energy>
47.9723

> <b_lp_Chiralities_Consistent>
1

> <s_lp_Variant>
AV-unprocessed.smi:2226-5

> <Gold.Version>
5.8.1

> <Gold.Id.Protein>
6NUR|6NUR_protein|mol2

> <Gold.PLP.Fitness>
41.5881

> <Gold.PLP.PLP>
-26.6239

> <Gold.PLP.part.hbond>
-3.2106

> <Gold.PLP.part.metal>
0.0000

> <Gold.PLP.part.buried>
-4.8402

> <Gold.PLP.part.nonpolar>
-20.1307

> <Gold.PLP.part.repulsive>
0.2271

> <Gold.PLP.ligand.clash>
0.0000

> <Gold.PLP.ligand.torsion>
0.5560

> <Gold.PLP.Chemscore.Hbond>
4.6088

> <Gold.PLP.Chemscore.CHOScore>
0.7311

> <Gold.PLP.Chemscore.Metal>
0.0000

> <Gold.Chemscore.Hbonds>
donor molecule, donor type, donor heavy atom, donor atom, acceptor molecule, acceptor atom, score
      L1  H     2    40       P1 10957  0.94
      L1  H    10    34       P1  7948  0.93
      L1  H    13    41       P1  7948  0.59
      L1  H    15    35       P1 10175  2.00
      L1  C    17    37       P1  8028  0.82

> <Gold.PLP.Chemscore.Internal.Correction>
0.0566

> <Gold.Rescore>
     Score         DG    S(hbond)    S(metal)    S(lipo)     H(rot)  DE(clash)    DE(int)     intcor
     18.62     -19.89       2.98        0.00      59.94       1.00       0.61       0.67       ----

> <Gold.Chemscore.Fitness>
18.6183

> <Gold.Chemscore.DG>
-19.8889

> <Gold.Chemscore.ZeroCoef>
-5.4800

> <Gold.Chemscore.Hbond>
2.9809

> <Gold.Chemscore.Metal>
0.0000

> <Gold.Chemscore.Lipo>
59.9370

> <Gold.Chemscore.Internal_Hbond>
0.0000

> <Gold.Chemscore.DEClash>
0.6055

> <Gold.Chemscore.DEInternal>
0.6651

> <Gold.Chemscore.Rot>
1.0000

> <Gold.Chemscore.Internal.Correction>
   9.000000E+99

> <Gold.Chemscore.Hbonds>
donor molecule, donor type, donor heavy atom, donor atom, acceptor molecule, acceptor atom, score
      L1  H     2    40       P1 10957  0.31
      L1  H    10    34       P1  7948  0.88
      L1  H    13    41       P1  7948  0.57
      L1  H    15    35       P1 10175  0.94

> <Gold.Chemscore.Hbond.Weighted>
-9.9562

> <Gold.Chemscore.Metal.Weighted>
-0.0000

> <Gold.Chemscore.Lipo.Weighted>
-7.0126

> <Gold.Chemscore.Internal_Hbond.Weighted>
0.0000

> <Gold.Chemscore.DEClash.Weighted>
0.6055

> <Gold.Chemscore.DEInternal.Weighted>
0.6651

> <Gold.Chemscore.Rot.Weighted>
2.5600

> <Gold.Chemscore.Internal.Correction.Weighted>
   9.000000E+99

> <Gold.Protein.RotatedTorsions>
[ 6907 6896 6895 6894 ] final -108.39 input  -60.11 | X-H torsion
[ 7974 7965 7964 7962 ] final -101.03 input  175.53 | X-H torsion
[ 8008 7997 7996 7995 ] final   32.78 input   59.86 | X-H torsion
[ 10167 10162 10161 10158 ] final  -61.22 input  -65.29 | X-H torsion
[ 10718 10713 10712 10709 ] final   23.92 input   66.30 | X-H torsion
[ 10763 10752 10751 10750 ] final   51.42 input  -60.55 | X-H torsion
[ 11005 11000 10999 10996 ] final  -29.44 input  -57.11 | X-H torsion

> <Gold.Protein.ActiveResidues>
 VAL166  LYS551  ARG553  GLY616  TRP617  ASP618  TYR619  PRO620  LYS621  CYS622 
 ASP623  PHE694  ASN695  SER759  ASP760  ASP761  ALA762  ILE779  LEU786  VAL792 
 PHE793  MET794  SER795  GLU796  ALA797  LYS798  CYS799  TRP800  GLU811  SER814 

> <Gold.Protein.RotatedAtoms>
  150.7499  133.9685  159.3537 H   0  0  0  0  0  0  0  0  0  0  0  0  # atno 6907 bound_to 6896
  151.7617  135.0806  160.0356 H   0  0  0  0  0  0  0  0  0  0  0  0  # atno 6908 bound_to 6896
  152.3399  133.6017  159.5905 H   0  0  0  0  0  0  0  0  0  0  0  0  # atno 6909 bound_to 6896
  145.2869  140.9342  143.2900 H   0  0  0  0  0  0  0  0  0  0  0  0  # atno 7974 bound_to 7965
  155.1280  140.3254  155.4481 H   0  0  0  0  0  0  0  0  0  0  0  0  # atno 8008 bound_to 7997
  156.2643  140.2015  156.6349 H   0  0  0  0  0  0  0  0  0  0  0  0  # atno 8009 bound_to 7997
  154.6633  140.0544  157.0073 H   0  0  0  0  0  0  0  0  0  0  0  0  # atno 8010 bound_to 7997
  140.6020  143.2364  151.5906 H   0  0  0  0  0  0  0  0  0  0  0  0  # atno 10167 bound_to 10162
  157.1727  130.6767  149.6084 H   0  0  0  0  0  0  0  0  0  0  0  0  # atno 10718 bound_to 10713
  152.9785  135.5846  154.4413 H   0  0  0  0  0  0  0  0  0  0  0  0  # atno 10763 bound_to 10752
  154.4014  135.2769  155.2096 H   0  0  0  0  0  0  0  0  0  0  0  0  # atno 10764 bound_to 10752
  154.3926  135.6122  153.5906 H   0  0  0  0  0  0  0  0  0  0  0  0  # atno 10765 bound_to 10752
  140.9296  133.7346  156.0917 H   0  0  0  0  0  0  0  0  0  0  0  0  # atno 11005 bound_to 11000
  144.9205  139.4417  143.6543 LP  0  0  0  0  0  0  0  0  0  0  0  0  # atno 17320 bound_to 7965
  146.3198  139.8063  142.8955 LP  0  0  0  0  0  0  0  0  0  0  0  0  # atno 17321 bound_to 7965
  139.5298  144.2950  152.1121 LP  0  0  0  0  0  0  0  0  0  0  0  0  # atno 17342 bound_to 10162
  140.2133  144.4541  150.6376 LP  0  0  0  0  0  0  0  0  0  0  0  0  # atno 17343 bound_to 10162
  155.9736  130.4673  150.6321 LP  0  0  0  0  0  0  0  0  0  0  0  0  # atno 17370 bound_to 10713
  157.4027  131.0812  151.1293 LP  0  0  0  0  0  0  0  0  0  0  0  0  # atno 17371 bound_to 10713
  140.7880  134.3650  157.5471 LP  0  0  0  0  0  0  0  0  0  0  0  0  # atno 17394 bound_to 11000
  139.8793  134.9123  156.3056 LP  0  0  0  0  0  0  0  0  0  0  0  0  # atno 17395 bound_to 11000

$$$$
