AV-unprocessed.smi:1769|AV-procd|sdf|7151|dock2
  -GOLD-   22720 8393D 1   1.00000     0.00000
 Structure written by MMmdl.
 41 42  0  0  0  0  0  0  0  0  1 V2000
  147.4610  139.9126  154.0161 C   0  0  0  0  0  0  0  0  0  0  0  0
  148.8980  140.2604  154.4114 C   0  0  0  0  0  0  0  0  0  0  0  0
  149.3505  141.3465  154.0494 O   0  0  0  0  0  0  0  0  0  0  0  0
  149.6172  139.3740  155.1414 N   0  0  0  0  0  0  0  0  0  0  0  0
  151.0268  139.5333  155.5212 C   0  0  0  0  0  0  0  0  0  0  0  0
  151.8707  138.5377  154.7054 C   0  0  0  0  0  0  0  0  0  0  0  0
  151.3720  137.0945  154.9122 C   0  0  0  0  0  0  0  0  0  0  0  0
  149.8456  136.9747  154.6874 C   0  0  1  0  0  0  0  0  0  0  0  0
  149.3431  135.5681  155.0387 C   0  0  0  0  0  0  0  0  0  0  0  0
  149.4112  135.1557  156.1971 O   0  0  0  0  0  0  0  0  0  0  0  0
  148.8421  134.8404  154.0284 N   0  0  0  0  0  0  0  0  0  0  0  0
  148.3261  133.4826  154.1520 C   0  0  0  0  0  0  0  0  0  0  0  0
  148.2698  132.7755  152.7885 C   0  0  0  0  0  0  0  0  0  0  0  0
  146.9020  132.8884  152.1453 C   0  0  0  0  0  0  0  0  0  0  0  0
  146.1560  131.7349  151.8275 C   0  0  0  0  0  0  0  0  0  0  0  0
  144.8876  131.8899  151.2359 C   0  0  0  0  0  0  0  0  0  0  0  0
  144.4176  133.1952  150.9886 C   0  0  0  0  0  0  0  0  0  0  0  0
  145.1230  134.3069  151.2895 N   0  0  0  0  0  0  0  0  0  0  0  0
  146.3390  134.1496  151.8554 C   0  0  0  0  0  0  0  0  0  0  0  0
  149.1030  138.0497  155.5134 C   0  0  0  0  0  0  0  0  0  0  0  0
  146.8503  139.7258  154.9001 H   0  0  0  0  0  0  0  0  0  0  0  0
  147.4398  139.0299  153.3761 H   0  0  0  0  0  0  0  0  0  0  0  0
  147.0042  140.7350  153.4643 H   0  0  0  0  0  0  0  0  0  0  0  0
  151.4067  140.5442  155.3819 H   0  0  0  0  0  0  0  0  0  0  0  0
  151.1357  139.3272  156.5870 H   0  0  0  0  0  0  0  0  0  0  0  0
  151.8164  138.7963  153.6471 H   0  0  0  0  0  0  0  0  0  0  0  0
  152.9204  138.6134  154.9900 H   0  0  0  0  0  0  0  0  0  0  0  0
  151.9071  136.4204  154.2423 H   0  0  0  0  0  0  0  0  0  0  0  0
  151.6239  136.7818  155.9269 H   0  0  0  0  0  0  0  0  0  0  0  0
  149.6425  137.1596  153.6307 H   0  0  0  0  0  0  0  0  0  0  0  0
  148.8200  135.2558  153.1084 H   0  0  0  0  0  0  0  0  0  0  0  0
  148.9363  132.9122  154.8546 H   0  0  0  0  0  0  0  0  0  0  0  0
  147.3264  133.5381  154.5839 H   0  0  0  0  0  0  0  0  0  0  0  0
  149.0156  133.1996  152.1149 H   0  0  0  0  0  0  0  0  0  0  0  0
  148.5198  131.7193  152.8983 H   0  0  0  0  0  0  0  0  0  0  0  0
  146.5464  130.7491  152.0344 H   0  0  0  0  0  0  0  0  0  0  0  0
  144.2885  131.0291  150.9786 H   0  0  0  0  0  0  0  0  0  0  0  0
  143.4487  133.3505  150.5375 H   0  0  0  0  0  0  0  0  0  0  0  0
  146.8769  135.0575  152.0861 H   0  0  0  0  0  0  0  0  0  0  0  0
  149.2640  137.8938  156.5816 H   0  0  0  0  0  0  0  0  0  0  0  0
  148.0253  137.9642  155.3640 H   0  0  0  0  0  0  0  0  0  0  0  0
  1  2  1  0  0  0  0
  1 21  1  0  0  0  0
  1 22  1  0  0  0  0
  1 23  1  0  0  0  0
  2  3  2  0  0  0  0
  2  4  1  0  0  0  0
  4 20  1  0  0  0  0
  4  5  1  0  0  0  0
  5  6  1  0  0  0  0
  5 24  1  0  0  0  0
  5 25  1  0  0  0  0
  6  7  1  0  0  0  0
  6 26  1  0  0  0  0
  6 27  1  0  0  0  0
  7  8  1  0  0  0  0
  7 28  1  0  0  0  0
  7 29  1  0  0  0  0
  8  9  1  0  0  0  0
  8 20  1  0  0  0  0
  8 30  1  0  0  0  0
  9 10  2  0  0  0  0
  9 11  1  0  0  0  0
 11 12  1  0  0  0  0
 11 31  1  0  0  0  0
 12 13  1  0  0  0  0
 12 32  1  0  0  0  0
 12 33  1  0  0  0  0
 13 14  1  0  0  0  0
 13 34  1  0  0  0  0
 13 35  1  0  0  0  0
 14 19  1  0  0  0  0
 14 15  2  0  0  0  0
 15 16  1  0  0  0  0
 15 36  1  0  0  0  0
 16 17  2  0  0  0  0
 16 37  1  0  0  0  0
 17 18  1  0  0  0  0
 17 38  1  0  0  0  0
 18 19  2  0  0  0  0
 19 39  1  0  0  0  0
 20 40  1  0  0  0  0
 20 41  1  0  0  0  0
M  END
> <s_m_source_file>
AV-unprocessed.smi

> <i_m_source_file_index>
1769

> <i_lp_mmshare_version>
43012

> <i_f3d_flags>
0

> <s_epik_input>
W0NIM11DKD1PKU4xW0NIMl1bQ0gyXVtDSDJdW0NASF0oW0NIMl0xKUMoPU8pW05IXVtDSDJdW0NIMl1jMltjSF1bY0hdW2NIXW5bY0hdMg==

> <s_epik_cmdline>
J2VwaWtfcHl0aG9uJywgJy1waCcsICc3LjAnLCAnLXRuJywgJzgnLCAnLW1hJywgJzIwMCcsICctbWV0YWxfYmluZGluZycsICctaW1hZScsICc8aW5maWxlLm1hZT4nLCAnLW9tYWUnLCAnPG91dGZpbGUubWFlPic=

> <r_epik_Ionization_Penalty>
0.0134099

> <r_epik_Ionization_Penalty_Charging>
0

> <r_epik_Ionization_Penalty_Neutral>
0.0134099

> <r_epik_State_Penalty>
0.010434

> <r_epik_Charging_Adjusted_Penalty>
0.010434

> <i_epik_Tot_Q>
0

> <i_epik_Tot_abs_Q>
0

> <r_epik_Metal_State_Penalty>
0.0102025

> <b_epik_Metal_Only>
0

> <s_lp_Force_Field>
OPLS_2005

> <r_lp_Energy>
22.5889

> <b_lp_Chiralities_Consistent>
1

> <s_lp_Variant>
AV-unprocessed.smi:1769-1

> <Gold.Version>
5.8.1

> <Gold.Id.Protein>
6NUR|6NUR_protein|mol2

> <Gold.PLP.Fitness>
43.6702

> <Gold.PLP.PLP>
-32.9980

> <Gold.PLP.part.hbond>
-2.9737

> <Gold.PLP.part.metal>
0.0000

> <Gold.PLP.part.buried>
-2.1218

> <Gold.PLP.part.nonpolar>
-28.5166

> <Gold.PLP.part.repulsive>
0.3871

> <Gold.PLP.ligand.clash>
0.0000

> <Gold.PLP.ligand.torsion>
0.3989

> <Gold.PLP.Chemscore.Hbond>
1.8086

> <Gold.PLP.Chemscore.CHOScore>
1.9999

> <Gold.PLP.Chemscore.Metal>
0.0000

> <Gold.Chemscore.Hbonds>
donor molecule, donor type, donor heavy atom, donor atom, acceptor molecule, acceptor atom, score
      L1  H    11    31       P1  7948  1.00
      P1  H  7989  7998       L1     3  0.05
      P1  H  8011  8017       L1     3  0.67
      L1  C    17    38       P1 10186  0.22
      L1  C    19    39       P1  7948  1.00

> <Gold.PLP.Chemscore.Internal.Correction>
0.0444

> <Gold.Rescore>
     Score         DG    S(hbond)    S(metal)    S(lipo)     H(rot)  DE(clash)    DE(int)     intcor
     15.44     -16.04       1.62        0.00      77.24       1.52       0.10       0.49       ----

> <Gold.Chemscore.Fitness>
15.4436

> <Gold.Chemscore.DG>
-16.0378

> <Gold.Chemscore.ZeroCoef>
-5.4800

> <Gold.Chemscore.Hbond>
1.6209

> <Gold.Chemscore.Metal>
0.0000

> <Gold.Chemscore.Lipo>
77.2364

> <Gold.Chemscore.Internal_Hbond>
0.0000

> <Gold.Chemscore.DEClash>
0.1049

> <Gold.Chemscore.DEInternal>
0.4893

> <Gold.Chemscore.Rot>
1.5205

> <Gold.Chemscore.Internal.Correction>
   9.000000E+99

> <Gold.Chemscore.Hbonds>
donor molecule, donor type, donor heavy atom, donor atom, acceptor molecule, acceptor atom, score
      L1  H    11    31       P1  7948  0.53
      P1  H  7989  7998       L1     3  0.03
      P1  H  8011  8017       L1     3  0.64

> <Gold.Chemscore.Hbond.Weighted>
-5.4137

> <Gold.Chemscore.Metal.Weighted>
-0.0000

> <Gold.Chemscore.Lipo.Weighted>
-9.0367

> <Gold.Chemscore.Internal_Hbond.Weighted>
0.0000

> <Gold.Chemscore.DEClash.Weighted>
0.1049

> <Gold.Chemscore.DEInternal.Weighted>
0.4893

> <Gold.Chemscore.Rot.Weighted>
3.8926

> <Gold.Chemscore.Internal.Correction.Weighted>
   9.000000E+99

> <Gold.Protein.RotatedTorsions>
[ 6907 6896 6895 6894 ] final   90.14 input  -60.11 | X-H torsion
[ 7974 7965 7964 7962 ] final -151.44 input  175.53 | X-H torsion
[ 8008 7997 7996 7995 ] final  178.49 input   59.86 | X-H torsion
[ 10167 10162 10161 10158 ] final  -73.40 input  -65.29 | X-H torsion
[ 10718 10713 10712 10709 ] final   54.79 input   66.30 | X-H torsion
[ 10763 10752 10751 10750 ] final   23.73 input  -60.55 | X-H torsion
[ 11005 11000 10999 10996 ] final -170.61 input  -57.11 | X-H torsion

> <Gold.Protein.ActiveResidues>
 VAL166  LYS551  ARG553  GLY616  TRP617  ASP618  TYR619  PRO620  LYS621  CYS622 
 ASP623  PHE694  ASN695  SER759  ASP760  ASP761  ALA762  ILE779  LEU786  VAL792 
 PHE793  MET794  SER795  GLU796  ALA797  LYS798  CYS799  TRP800  GLU811  SER814 

> <Gold.Protein.RotatedAtoms>
  152.5442  134.1857  159.8653 H   0  0  0  0  0  0  0  0  0  0  0  0  # atno 6907 bound_to 6896
  151.1856  133.4691  159.2602 H   0  0  0  0  0  0  0  0  0  0  0  0  # atno 6908 bound_to 6896
  151.1134  135.0051  159.8560 H   0  0  0  0  0  0  0  0  0  0  0  0  # atno 6909 bound_to 6896
  144.7850  140.4797  143.5813 H   0  0  0  0  0  0  0  0  0  0  0  0  # atno 7974 bound_to 7965
  156.0541  140.1332  157.0017 H   0  0  0  0  0  0  0  0  0  0  0  0  # atno 8008 bound_to 7997
  154.4449  140.1005  156.6490 H   0  0  0  0  0  0  0  0  0  0  0  0  # atno 8009 bound_to 7997
  155.5479  140.3462  155.4464 H   0  0  0  0  0  0  0  0  0  0  0  0  # atno 8010 bound_to 7997
  140.5113  143.2344  151.7588 H   0  0  0  0  0  0  0  0  0  0  0  0  # atno 10167 bound_to 10162
  157.5288  130.8616  149.8659 H   0  0  0  0  0  0  0  0  0  0  0  0  # atno 10718 bound_to 10713
  153.0816  135.6620  154.0033 H   0  0  0  0  0  0  0  0  0  0  0  0  # atno 10763 bound_to 10752
  153.9653  135.2970  155.3432 H   0  0  0  0  0  0  0  0  0  0  0  0  # atno 10764 bound_to 10752
  154.7217  135.5162  153.8894 H   0  0  0  0  0  0  0  0  0  0  0  0  # atno 10765 bound_to 10752
  140.5176  134.5741  157.5038 H   0  0  0  0  0  0  0  0  0  0  0  0  # atno 11005 bound_to 11000
  145.5947  139.1498  143.3162 LP  0  0  0  0  0  0  0  0  0  0  0  0  # atno 17320 bound_to 7965
  146.2077  140.6071  142.9074 LP  0  0  0  0  0  0  0  0  0  0  0  0  # atno 17321 bound_to 7965
  139.4897  144.4386  151.9790 LP  0  0  0  0  0  0  0  0  0  0  0  0  # atno 17342 bound_to 10162
  140.3479  144.3125  150.5954 LP  0  0  0  0  0  0  0  0  0  0  0  0  # atno 17343 bound_to 10162
  156.0407  130.3740  150.1443 LP  0  0  0  0  0  0  0  0  0  0  0  0  # atno 17370 bound_to 10713
  156.9629  130.9810  151.3475 LP  0  0  0  0  0  0  0  0  0  0  0  0  # atno 17371 bound_to 10713
  139.9624  134.7430  156.0209 LP  0  0  0  0  0  0  0  0  0  0  0  0  # atno 17394 bound_to 11000
  141.1352  133.6577  156.3573 LP  0  0  0  0  0  0  0  0  0  0  0  0  # atno 17395 bound_to 11000

$$$$
