AV-unprocessed.smi:1596|AV-procd|sdf|6419|dock4
  -GOLD-   22720 7 53D 1   1.00000     0.00000
 Structure written by MMmdl.
 48 49  0  0  0  0  0  0  0  0  1 V2000
  151.6565  143.8726  157.6107 C   0  0  0  0  0  0  0  0  0  0  0  0
  150.6532  142.7097  157.5435 C   0  0  0  0  0  0  0  0  0  0  0  0
  151.2811  141.4143  157.2834 N   0  0  0  0  0  0  0  0  0  0  0  0
  151.7857  140.7312  158.4742 C   0  0  0  0  0  0  0  0  0  0  0  0
  152.6176  141.6378  159.3961 C   0  0  0  0  0  0  0  0  0  0  0  0
  150.5079  140.5756  156.4606 C   0  0  0  0  0  0  0  0  0  0  0  0
  149.3332  139.9955  156.9832 C   0  0  0  0  0  0  0  0  0  0  0  0
  148.5603  139.1600  156.1547 C   0  0  0  0  0  0  0  0  0  0  0  0
  148.9844  138.9353  154.8236 C   0  0  0  0  0  0  0  0  0  0  0  0
  148.3056  138.0955  153.8998 N   0  0  0  0  0  0  0  0  0  0  0  0
  146.9832  137.8942  153.7703 C   0  0  0  0  0  0  0  0  0  0  0  0
  146.1095  138.4665  154.4215 O   0  0  0  0  0  0  0  0  0  0  0  0
  146.7221  136.9944  152.8111 N   0  0  0  0  0  0  0  0  0  0  0  0
  145.3901  136.5555  152.4056 C   0  0  2  0  0  0  0  0  0  0  0  0
  144.6482  135.9657  153.6186 C   0  0  0  0  0  0  0  0  0  0  0  0
  143.2538  135.4447  153.2281 C   0  0  0  0  0  0  0  0  0  0  0  0
  143.3126  134.4320  152.0690 C   0  0  2  0  0  0  0  0  0  0  0  0
  143.8998  133.2241  152.5113 O   0  0  0  0  0  0  0  0  0  0  0  0
  144.0964  134.9915  150.8666 C   0  0  0  0  0  0  0  0  0  0  0  0
  145.4853  135.5193  151.2681 C   0  0  0  0  0  0  0  0  0  0  0  0
  150.1815  139.5511  154.4034 C   0  0  0  0  0  0  0  0  0  0  0  0
  150.9257  140.3553  155.1914 N   0  0  0  0  0  0  0  0  0  0  0  0
  151.1494  144.8012  157.8726 H   0  0  0  0  0  0  0  0  0  0  0  0
  152.1575  144.0335  156.6558 H   0  0  0  0  0  0  0  0  0  0  0  0
  152.4211  143.6885  158.3658 H   0  0  0  0  0  0  0  0  0  0  0  0
  150.1233  142.6527  158.4948 H   0  0  0  0  0  0  0  0  0  0  0  0
  149.8966  142.9134  156.7845 H   0  0  0  0  0  0  0  0  0  0  0  0
  150.9366  140.3458  159.0397 H   0  0  0  0  0  0  0  0  0  0  0  0
  152.3752  139.8628  158.1773 H   0  0  0  0  0  0  0  0  0  0  0  0
  152.9125  141.0991  160.2967 H   0  0  0  0  0  0  0  0  0  0  0  0
  152.0457  142.5130  159.7060 H   0  0  0  0  0  0  0  0  0  0  0  0
  153.5307  141.9850  158.9116 H   0  0  0  0  0  0  0  0  0  0  0  0
  149.0310  140.1841  158.0030 H   0  0  0  0  0  0  0  0  0  0  0  0
  147.6727  138.6999  156.5599 H   0  0  0  0  0  0  0  0  0  0  0  0
  148.8948  137.6257  153.2279 H   0  0  0  0  0  0  0  0  0  0  0  0
  147.5028  136.5814  152.3222 H   0  0  0  0  0  0  0  0  0  0  0  0
  144.8219  137.4178  152.0509 H   0  0  0  0  0  0  0  0  0  0  0  0
  145.2323  135.1522  154.0513 H   0  0  0  0  0  0  0  0  0  0  0  0
  144.5494  136.7212  154.3989 H   0  0  0  0  0  0  0  0  0  0  0  0
  142.7631  135.0002  154.0947 H   0  0  0  0  0  0  0  0  0  0  0  0
  142.6330  136.2903  152.9290 H   0  0  0  0  0  0  0  0  0  0  0  0
  142.2967  134.1935  151.7524 H   0  0  0  0  0  0  0  0  0  0  0  0
  143.3882  132.8870  153.2310 H   0  0  0  0  0  0  0  0  0  0  0  0
  144.1938  134.2315  150.0908 H   0  0  0  0  0  0  0  0  0  0  0  0
  143.5262  135.8076  150.4209 H   0  0  0  0  0  0  0  0  0  0  0  0
  145.9706  135.9612  150.3970 H   0  0  0  0  0  0  0  0  0  0  0  0
  146.1154  134.6851  151.5798 H   0  0  0  0  0  0  0  0  0  0  0  0
  150.5537  139.3992  153.4007 H   0  0  0  0  0  0  0  0  0  0  0  0
  1  2  1  0  0  0  0
  1 23  1  0  0  0  0
  1 24  1  0  0  0  0
  1 25  1  0  0  0  0
  2  3  1  0  0  0  0
  2 26  1  0  0  0  0
  2 27  1  0  0  0  0
  3  4  1  0  0  0  0
  3  6  1  0  0  0  0
  4  5  1  0  0  0  0
  4 28  1  0  0  0  0
  4 29  1  0  0  0  0
  5 30  1  0  0  0  0
  5 31  1  0  0  0  0
  5 32  1  0  0  0  0
  6 22  1  0  0  0  0
  6  7  2  0  0  0  0
  7  8  1  0  0  0  0
  7 33  1  0  0  0  0
  8  9  2  0  0  0  0
  8 34  1  0  0  0  0
  9 10  1  0  0  0  0
  9 21  1  0  0  0  0
 10 11  1  0  0  0  0
 10 35  1  0  0  0  0
 11 12  2  0  0  0  0
 11 13  1  0  0  0  0
 13 14  1  0  0  0  0
 13 36  1  0  0  0  0
 14 20  1  0  0  0  0
 14 15  1  0  0  0  0
 14 37  1  0  0  0  0
 15 16  1  0  0  0  0
 15 38  1  0  0  0  0
 15 39  1  0  0  0  0
 16 17  1  0  0  0  0
 16 40  1  0  0  0  0
 16 41  1  0  0  0  0
 17 18  1  0  0  0  0
 17 19  1  0  0  0  0
 17 42  1  0  0  0  0
 18 43  1  0  0  0  0
 19 20  1  0  0  0  0
 19 44  1  0  0  0  0
 19 45  1  0  0  0  0
 20 46  1  0  0  0  0
 20 47  1  0  0  0  0
 21 22  2  0  0  0  0
 21 48  1  0  0  0  0
M  END
> <s_m_source_file>
AV-unprocessed.smi

> <i_m_source_file_index>
1596

> <i_lp_mmshare_version>
43012

> <i_f3d_flags>
0

> <s_epik_input>
W0NIM11bQ0gyXU4oW0NIMl1bQ0gzXSljMVtjSF1bY0hdYyhbY0hdbjEpW05IXUMoPU8pW05IXVtDQEBIXTJbQ0gyXVtDSDJdW0NAQEhdKFtPSF0pW0NIMl1bQ0gyXTI=

> <s_epik_cmdline>
J2VwaWtfcHl0aG9uJywgJy1waCcsICc3LjAnLCAnLXRuJywgJzgnLCAnLW1hJywgJzIwMCcsICctbWV0YWxfYmluZGluZycsICctaW1hZScsICc8aW5maWxlLm1hZT4nLCAnLW9tYWUnLCAnPG91dGZpbGUubWFlPic=

> <r_lp_tautomer_probability>
1

> <r_epik_Ionization_Penalty>
0.709395

> <r_epik_Ionization_Penalty_Charging>
0

> <r_epik_Ionization_Penalty_Neutral>
0.709395

> <r_epik_State_Penalty>
2.20721

> <r_epik_Charging_Adjusted_Penalty>
2.20721

> <i_epik_Tot_Q>
0

> <i_epik_Tot_abs_Q>
0

> <r_epik_Metal_State_Penalty>
1.55411

> <b_epik_Metal_Only>
0

> <s_lp_Force_Field>
OPLS_2005

> <r_lp_Energy>
19.3677

> <b_lp_Chiralities_Consistent>
1

> <s_lp_Variant>
AV-unprocessed.smi:1596-4

> <Gold.Version>
5.8.1

> <Gold.Id.Protein>
6NUR|6NUR_protein|mol2

> <Gold.PLP.Fitness>
42.9845

> <Gold.PLP.PLP>
-32.2871

> <Gold.PLP.part.hbond>
-4.0000

> <Gold.PLP.part.metal>
0.0000

> <Gold.PLP.part.buried>
-5.5317

> <Gold.PLP.part.nonpolar>
-24.9442

> <Gold.PLP.part.repulsive>
0.1998

> <Gold.PLP.ligand.clash>
0.0000

> <Gold.PLP.ligand.torsion>
0.7878

> <Gold.PLP.Chemscore.Hbond>
3.0033

> <Gold.PLP.Chemscore.CHOScore>
1.0000

> <Gold.PLP.Chemscore.Metal>
0.0000

> <Gold.Chemscore.Hbonds>
donor molecule, donor type, donor heavy atom, donor atom, acceptor molecule, acceptor atom, score
      L1  H    10    35       P1  7948  0.91
      L1  H    13    36       P1  7948  1.00
      L1  H    18    43       P1 10957  0.99
      P1  H  7989  7998       L1    22  0.10
      L1  C    21    48       P1  7957  1.00

> <Gold.PLP.Chemscore.Internal.Correction>
0.2634

> <Gold.Rescore>
     Score         DG    S(hbond)    S(metal)    S(lipo)     H(rot)  DE(clash)    DE(int)     intcor
     15.93     -18.98       2.85        0.00      78.00       2.01       0.08       2.96       ----

> <Gold.Chemscore.Fitness>
15.9334

> <Gold.Chemscore.DG>
-18.9752

> <Gold.Chemscore.ZeroCoef>
-5.4800

> <Gold.Chemscore.Hbond>
2.8451

> <Gold.Chemscore.Metal>
0.0000

> <Gold.Chemscore.Lipo>
78.0003

> <Gold.Chemscore.Internal_Hbond>
0.0000

> <Gold.Chemscore.DEClash>
0.0813

> <Gold.Chemscore.DEInternal>
2.9606

> <Gold.Chemscore.Rot>
2.0052

> <Gold.Chemscore.Internal.Correction>
   9.000000E+99

> <Gold.Chemscore.Hbonds>
donor molecule, donor type, donor heavy atom, donor atom, acceptor molecule, acceptor atom, score
      L1  H    10    35       P1  7948  0.89
      L1  H    13    36       P1  7948  0.95
      L1  H    18    43       P1 10957  0.56

> <Gold.Chemscore.Hbond.Weighted>
-9.5026

> <Gold.Chemscore.Metal.Weighted>
-0.0000

> <Gold.Chemscore.Lipo.Weighted>
-9.1260

> <Gold.Chemscore.Internal_Hbond.Weighted>
0.0000

> <Gold.Chemscore.DEClash.Weighted>
0.0813

> <Gold.Chemscore.DEInternal.Weighted>
2.9606

> <Gold.Chemscore.Rot.Weighted>
5.1334

> <Gold.Chemscore.Internal.Correction.Weighted>
   9.000000E+99

> <Gold.Protein.RotatedTorsions>
[ 6907 6896 6895 6894 ] final   47.35 input  -60.11 | X-H torsion
[ 7974 7965 7964 7962 ] final  101.22 input  175.53 | X-H torsion
[ 8008 7997 7996 7995 ] final   -9.87 input   59.86 | X-H torsion
[ 10167 10162 10161 10158 ] final   31.82 input  -65.29 | X-H torsion
[ 10718 10713 10712 10709 ] final -124.11 input   66.30 | X-H torsion
[ 10763 10752 10751 10750 ] final   18.95 input  -60.55 | X-H torsion
[ 11005 11000 10999 10996 ] final -142.63 input  -57.11 | X-H torsion

> <Gold.Protein.ActiveResidues>
 VAL166  LYS551  ARG553  GLY616  TRP617  ASP618  TYR619  PRO620  LYS621  CYS622 
 ASP623  PHE694  ASN695  SER759  ASP760  ASP761  ALA762  ILE779  LEU786  VAL792 
 PHE793  MET794  SER795  GLU796  ALA797  LYS798  CYS799  TRP800  GLU811  SER814 

> <Gold.Protein.RotatedAtoms>
  152.2671  134.7973  160.0420 H   0  0  0  0  0  0  0  0  0  0  0  0  # atno 6907 bound_to 6896
  151.8599  133.3450  159.3708 H   0  0  0  0  0  0  0  0  0  0  0  0  # atno 6908 bound_to 6896
  150.7138  134.5144  159.5667 H   0  0  0  0  0  0  0  0  0  0  0  0  # atno 6909 bound_to 6896
  145.3752  139.2390  143.3433 H   0  0  0  0  0  0  0  0  0  0  0  0  # atno 7974 bound_to 7965
  154.5607  140.2344  155.8340 H   0  0  0  0  0  0  0  0  0  0  0  0  # atno 8008 bound_to 7997
  156.2026  140.3048  155.9519 H   0  0  0  0  0  0  0  0  0  0  0  0  # atno 8009 bound_to 7997
  155.2895  140.0426  157.3012 H   0  0  0  0  0  0  0  0  0  0  0  0  # atno 8010 bound_to 7997
  140.4554  144.0986  150.6200 H   0  0  0  0  0  0  0  0  0  0  0  0  # atno 10167 bound_to 10162
  156.1559  130.6568  150.9981 H   0  0  0  0  0  0  0  0  0  0  0  0  # atno 10718 bound_to 10713
  153.1205  135.6718  153.9344 H   0  0  0  0  0  0  0  0  0  0  0  0  # atno 10763 bound_to 10752
  153.8861  135.3052  155.3448 H   0  0  0  0  0  0  0  0  0  0  0  0  # atno 10764 bound_to 10752
  154.7617  135.4985  153.9555 H   0  0  0  0  0  0  0  0  0  0  0  0  # atno 10765 bound_to 10752
  140.8206  134.2635  157.4902 H   0  0  0  0  0  0  0  0  0  0  0  0  # atno 11005 bound_to 11000
  146.2867  140.4410  142.8755 LP  0  0  0  0  0  0  0  0  0  0  0  0  # atno 17320 bound_to 7965
  144.8547  140.7053  143.6145 LP  0  0  0  0  0  0  0  0  0  0  0  0  # atno 17321 bound_to 7965
  140.4157  143.2635  151.9778 LP  0  0  0  0  0  0  0  0  0  0  0  0  # atno 17342 bound_to 10162
  139.4800  144.5876  151.7827 LP  0  0  0  0  0  0  0  0  0  0  0  0  # atno 17343 bound_to 10162
  157.6694  131.0864  150.7648 LP  0  0  0  0  0  0  0  0  0  0  0  0  # atno 17370 bound_to 10713
  156.7713  130.4830  149.5418 LP  0  0  0  0  0  0  0  0  0  0  0  0  # atno 17371 bound_to 10713
  139.8709  134.9533  156.4142 LP  0  0  0  0  0  0  0  0  0  0  0  0  # atno 17394 bound_to 11000
  140.9102  133.7717  155.9783 LP  0  0  0  0  0  0  0  0  0  0  0  0  # atno 17395 bound_to 11000

$$$$
