AV-unprocessed.smi:1067|AV-procd|sdf|4672|dock5
  -GOLD-   22720 3183D 1   1.00000     0.00000
 Structure written by MMmdl.
 50 52  0  0  0  0  0  0  0  0  1 V2000
  146.2909  136.4788  150.8117 N   0  0  0  0  0  0  0  0  0  0  0  0
  145.2956  135.5947  150.9330 C   0  0  0  0  0  0  0  0  0  0  0  0
  144.2572  135.7243  150.2864 O   0  0  0  0  0  0  0  0  0  0  0  0
  145.4856  134.3878  151.8966 C   0  0  0  0  0  0  0  0  0  0  0  0
  145.8219  134.9238  153.3180 C   0  0  0  0  0  0  0  0  0  0  0  0
  146.9855  135.8114  153.3646 N   0  0  0  0  0  0  0  0  0  0  0  0
  147.2755  136.6660  154.3556 C   0  0  0  0  0  0  0  0  0  0  0  0
  146.5692  136.8162  155.3524 O   0  0  0  0  0  0  0  0  0  0  0  0
  148.4172  137.3292  154.1047 N   0  0  0  0  0  0  0  0  0  0  0  0
  149.0581  138.3139  154.9036 C   0  0  0  0  0  0  0  0  0  0  0  0
  148.8532  138.4672  156.2944 C   0  0  0  0  0  0  0  0  0  0  0  0
  149.5570  139.4751  156.9806 C   0  0  0  0  0  0  0  0  0  0  0  0
  150.4568  140.2990  156.2637 C   0  0  0  0  0  0  0  0  0  0  0  0
  151.1703  141.3269  156.9107 N   0  0  0  0  0  0  0  0  0  0  0  0
  151.4549  141.2901  158.3364 C   0  0  0  0  0  0  0  0  0  0  0  0
  152.1485  142.6210  158.6234 C   0  0  0  0  0  0  0  0  0  0  0  0
  151.4937  143.5759  157.6249 C   0  0  0  0  0  0  0  0  0  0  0  0
  151.1830  142.6940  156.4096 C   0  0  0  0  0  0  0  0  0  0  0  0
  150.6605  140.1419  154.9341 N   0  0  0  0  0  0  0  0  0  0  0  0
  149.9848  139.1734  154.2813 C   0  0  0  0  0  0  0  0  0  0  0  0
  144.2149  133.4975  151.9883 C   0  0  0  0  0  0  0  0  0  0  0  0
  143.9299  132.7289  150.6829 C   0  0  0  0  0  0  0  0  0  0  0  0
  145.0523  131.9251  150.3425 O   0  0  0  0  0  0  0  0  0  0  0  0
  146.2297  132.6884  150.1100 C   0  0  0  0  0  0  0  0  0  0  0  0
  146.6197  133.4548  151.3886 C   0  0  0  0  0  0  0  0  0  0  0  0
  146.1844  137.2716  150.1952 H   0  0  0  0  0  0  0  0  0  0  0  0
  147.1430  136.3556  151.3391 H   0  0  0  0  0  0  0  0  0  0  0  0
  144.9723  135.4858  153.7079 H   0  0  0  0  0  0  0  0  0  0  0  0
  145.9562  134.0918  154.0115 H   0  0  0  0  0  0  0  0  0  0  0  0
  147.6270  135.7551  152.5869 H   0  0  0  0  0  0  0  0  0  0  0  0
  148.8459  137.1534  153.2078 H   0  0  0  0  0  0  0  0  0  0  0  0
  148.1822  137.8300  156.8491 H   0  0  0  0  0  0  0  0  0  0  0  0
  149.3935  139.6037  158.0399 H   0  0  0  0  0  0  0  0  0  0  0  0
  150.5191  141.2147  158.8917 H   0  0  0  0  0  0  0  0  0  0  0  0
  152.0854  140.4408  158.6017 H   0  0  0  0  0  0  0  0  0  0  0  0
  152.0393  142.9423  159.6594 H   0  0  0  0  0  0  0  0  0  0  0  0
  153.2142  142.5362  158.4058 H   0  0  0  0  0  0  0  0  0  0  0  0
  150.5627  143.9581  158.0458 H   0  0  0  0  0  0  0  0  0  0  0  0
  152.1242  144.4300  157.3771 H   0  0  0  0  0  0  0  0  0  0  0  0
  151.9646  142.7854  155.6547 H   0  0  0  0  0  0  0  0  0  0  0  0
  150.2319  142.9752  155.9563 H   0  0  0  0  0  0  0  0  0  0  0  0
  150.1864  139.0891  153.2234 H   0  0  0  0  0  0  0  0  0  0  0  0
  144.3473  132.7652  152.7863 H   0  0  0  0  0  0  0  0  0  0  0  0
  143.3394  134.0791  152.2797 H   0  0  0  0  0  0  0  0  0  0  0  0
  143.0657  132.0780  150.8167 H   0  0  0  0  0  0  0  0  0  0  0  0
  143.6888  133.4037  149.8608 H   0  0  0  0  0  0  0  0  0  0  0  0
  147.0333  132.0087  149.8260 H   0  0  0  0  0  0  0  0  0  0  0  0
  146.0794  133.3647  149.2675 H   0  0  0  0  0  0  0  0  0  0  0  0
  147.5411  134.0095  151.2076 H   0  0  0  0  0  0  0  0  0  0  0  0
  146.8646  132.7290  152.1653 H   0  0  0  0  0  0  0  0  0  0  0  0
  1  2  1  0  0  0  0
  1 26  1  0  0  0  0
  1 27  1  0  0  0  0
  2  3  2  0  0  0  0
  2  4  1  0  0  0  0
  4 25  1  0  0  0  0
  4  5  1  0  0  0  0
  4 21  1  0  0  0  0
  5  6  1  0  0  0  0
  5 28  1  0  0  0  0
  5 29  1  0  0  0  0
  6  7  1  0  0  0  0
  6 30  1  0  0  0  0
  7  8  2  0  0  0  0
  7  9  1  0  0  0  0
  9 10  1  0  0  0  0
  9 31  1  0  0  0  0
 10 20  1  0  0  0  0
 10 11  2  0  0  0  0
 11 12  1  0  0  0  0
 11 32  1  0  0  0  0
 12 13  2  0  0  0  0
 12 33  1  0  0  0  0
 13 14  1  0  0  0  0
 13 19  1  0  0  0  0
 14 18  1  0  0  0  0
 14 15  1  0  0  0  0
 15 16  1  0  0  0  0
 15 34  1  0  0  0  0
 15 35  1  0  0  0  0
 16 17  1  0  0  0  0
 16 36  1  0  0  0  0
 16 37  1  0  0  0  0
 17 18  1  0  0  0  0
 17 38  1  0  0  0  0
 17 39  1  0  0  0  0
 18 40  1  0  0  0  0
 18 41  1  0  0  0  0
 19 20  2  0  0  0  0
 20 42  1  0  0  0  0
 21 22  1  0  0  0  0
 21 43  1  0  0  0  0
 21 44  1  0  0  0  0
 22 23  1  0  0  0  0
 22 45  1  0  0  0  0
 22 46  1  0  0  0  0
 23 24  1  0  0  0  0
 24 25  1  0  0  0  0
 24 47  1  0  0  0  0
 24 48  1  0  0  0  0
 25 49  1  0  0  0  0
 25 50  1  0  0  0  0
M  END
> <s_m_source_file>
AV-unprocessed.smi

> <i_m_source_file_index>
1067

> <i_lp_mmshare_version>
43012

> <i_f3d_flags>
0

> <s_epik_input>
W0NIMl0xW0NIMl1PW0NIMl1bQ0gyXUMxKEMoPU8pW05IMl0pW0NIMl1bTkhdQyg9TylbTkhdYzJbY0hdW2NIXWMobltjSF0yKU4zW0NIMl1bQ0gyXVtDSDJdW0NIMl0z

> <s_epik_cmdline>
J2VwaWtfcHl0aG9uJywgJy1waCcsICc3LjAnLCAnLXRuJywgJzgnLCAnLW1hJywgJzIwMCcsICctbWV0YWxfYmluZGluZycsICctaW1hZScsICc8aW5maWxlLm1hZT4nLCAnLW9tYWUnLCAnPG91dGZpbGUubWFlPic=

> <r_lp_tautomer_probability>
1

> <r_epik_Ionization_Penalty>
0.0944962

> <r_epik_Ionization_Penalty_Charging>
0

> <r_epik_Ionization_Penalty_Neutral>
0.0944962

> <r_epik_State_Penalty>
0.0841646

> <r_epik_Charging_Adjusted_Penalty>
0.0841646

> <i_epik_Tot_Q>
0

> <i_epik_Tot_abs_Q>
0

> <r_epik_Metal_State_Penalty>
0.0725577

> <b_epik_Metal_Only>
0

> <s_lp_Force_Field>
OPLS_2005

> <r_lp_Energy>
34.2759

> <b_lp_Chiralities_Consistent>
1

> <s_lp_Variant>
AV-unprocessed.smi:1067-1

> <Gold.Version>
5.8.1

> <Gold.Id.Protein>
6NUR|6NUR_protein|mol2

> <Gold.PLP.Fitness>
50.2968

> <Gold.PLP.PLP>
-37.0233

> <Gold.PLP.part.hbond>
-4.0000

> <Gold.PLP.part.metal>
0.0000

> <Gold.PLP.part.buried>
-5.4472

> <Gold.PLP.part.nonpolar>
-28.7037

> <Gold.PLP.part.repulsive>
1.6365

> <Gold.PLP.ligand.clash>
0.0000

> <Gold.PLP.ligand.torsion>
0.8805

> <Gold.PLP.Chemscore.Hbond>
3.9500

> <Gold.PLP.Chemscore.CHOScore>
1.0000

> <Gold.PLP.Chemscore.Metal>
0.0000

> <Gold.Chemscore.Hbonds>
donor molecule, donor type, donor heavy atom, donor atom, acceptor molecule, acceptor atom, score
      L1  H     1    27       P1  7948  1.00
      L1  H     6    30       P1  7948  1.00
      L1  H     9    31       P1  7948  1.00
      P1  H  7989  7998       L1    19  1.00
      L1  C    20    42       P1  7957  1.00

> <Gold.PLP.Chemscore.Internal.Correction>
0.1845

> <Gold.Rescore>
     Score         DG    S(hbond)    S(metal)    S(lipo)     H(rot)  DE(clash)    DE(int)     intcor
     17.96     -22.08       3.32        0.00      86.67       1.81       0.32       3.80       ----

> <Gold.Chemscore.Fitness>
17.9560

> <Gold.Chemscore.DG>
-22.0777

> <Gold.Chemscore.ZeroCoef>
-5.4800

> <Gold.Chemscore.Hbond>
3.3186

> <Gold.Chemscore.Metal>
0.0000

> <Gold.Chemscore.Lipo>
86.6736

> <Gold.Chemscore.Internal_Hbond>
0.0000

> <Gold.Chemscore.DEClash>
0.3172

> <Gold.Chemscore.DEInternal>
3.8045

> <Gold.Chemscore.Rot>
1.8075

> <Gold.Chemscore.Internal.Correction>
   9.000000E+99

> <Gold.Chemscore.Hbonds>
donor molecule, donor type, donor heavy atom, donor atom, acceptor molecule, acceptor atom, score
      L1  H     1    27       P1  7948  1.00
      L1  H     6    30       P1  7948  0.93
      L1  H     9    31       P1  7948  0.94
      P1  H  7989  7998       L1    19  0.26

> <Gold.Chemscore.Hbond.Weighted>
-11.0840

> <Gold.Chemscore.Metal.Weighted>
-0.0000

> <Gold.Chemscore.Lipo.Weighted>
-10.1408

> <Gold.Chemscore.Internal_Hbond.Weighted>
0.0000

> <Gold.Chemscore.DEClash.Weighted>
0.3172

> <Gold.Chemscore.DEInternal.Weighted>
3.8045

> <Gold.Chemscore.Rot.Weighted>
4.6272

> <Gold.Chemscore.Internal.Correction.Weighted>
   9.000000E+99

> <Gold.Protein.RotatedTorsions>
[ 6907 6896 6895 6894 ] final  -68.84 input  -60.11 | X-H torsion
[ 7974 7965 7964 7962 ] final   50.29 input  175.53 | X-H torsion
[ 8008 7997 7996 7995 ] final -101.97 input   59.86 | X-H torsion
[ 10167 10162 10161 10158 ] final   46.89 input  -65.29 | X-H torsion
[ 10718 10713 10712 10709 ] final  156.47 input   66.30 | X-H torsion
[ 10763 10752 10751 10750 ] final   32.39 input  -60.55 | X-H torsion
[ 11005 11000 10999 10996 ] final  150.83 input  -57.11 | X-H torsion

> <Gold.Protein.ActiveResidues>
 VAL166  LYS551  ARG553  GLY616  TRP617  ASP618  TYR619  PRO620  LYS621  CYS622 
 ASP623  PHE694  ASN695  SER759  ASP760  ASP761  ALA762  ILE779  LEU786  VAL792 
 PHE793  MET794  SER795  GLU796  ALA797  LYS798  CYS799  TRP800  GLU811  SER814 

> <Gold.Protein.RotatedAtoms>
  150.7335  134.5682  159.5876 H   0  0  0  0  0  0  0  0  0  0  0  0  # atno 6907 bound_to 6896
  152.3128  134.7474  160.0341 H   0  0  0  0  0  0  0  0  0  0  0  0  # atno 6908 bound_to 6896
  151.8016  133.3335  159.3565 H   0  0  0  0  0  0  0  0  0  0  0  0  # atno 6909 bound_to 6896
  146.0026  139.4456  143.0005 H   0  0  0  0  0  0  0  0  0  0  0  0  # atno 7974 bound_to 7965
  154.8501  140.0431  157.1598 H   0  0  0  0  0  0  0  0  0  0  0  0  # atno 8008 bound_to 7997
  154.8952  140.2992  155.5328 H   0  0  0  0  0  0  0  0  0  0  0  0  # atno 8009 bound_to 7997
  156.2996  140.2386  156.3973 H   0  0  0  0  0  0  0  0  0  0  0  0  # atno 8010 bound_to 7997
  140.3093  144.2840  150.6203 H   0  0  0  0  0  0  0  0  0  0  0  0  # atno 10167 bound_to 10162
  157.2046  131.0684  151.2005 H   0  0  0  0  0  0  0  0  0  0  0  0  # atno 10718 bound_to 10713
  153.0265  135.6414  154.1348 H   0  0  0  0  0  0  0  0  0  0  0  0  # atno 10763 bound_to 10752
  154.1076  135.2855  155.3239 H   0  0  0  0  0  0  0  0  0  0  0  0  # atno 10764 bound_to 10752
  154.6354  135.5478  153.7791 H   0  0  0  0  0  0  0  0  0  0  0  0  # atno 10765 bound_to 10752
  140.1166  134.8890  157.2012 H   0  0  0  0  0  0  0  0  0  0  0  0  # atno 11005 bound_to 11000
  145.7464  140.9989  143.1274 LP  0  0  0  0  0  0  0  0  0  0  0  0  # atno 17320 bound_to 7965
  144.6925  139.9161  143.7466 LP  0  0  0  0  0  0  0  0  0  0  0  0  # atno 17321 bound_to 7965
  140.5582  143.2196  151.7810 LP  0  0  0  0  0  0  0  0  0  0  0  0  # atno 17342 bound_to 10162
  139.4897  144.4384  151.9792 LP  0  0  0  0  0  0  0  0  0  0  0  0  # atno 17343 bound_to 10162
  157.3733  130.7192  149.6580 LP  0  0  0  0  0  0  0  0  0  0  0  0  # atno 17370 bound_to 10713
  155.9697  130.4193  150.4367 LP  0  0  0  0  0  0  0  0  0  0  0  0  # atno 17371 bound_to 10713
  140.3021  134.3120  155.7287 LP  0  0  0  0  0  0  0  0  0  0  0  0  # atno 17394 bound_to 11000
  141.2142  133.7598  156.9655 LP  0  0  0  0  0  0  0  0  0  0  0  0  # atno 17395 bound_to 11000

$$$$
