AV-unprocessed.smi:2901|AV-procd|sdf|11150|dock7
  -GOLD-   2272016 33D 1   1.00000     0.00000
 Structure written by MMmdl.
 40 41  0  0  0  0  0  0  0  0  1 V2000
  151.7634  141.2882  158.5994 C   0  0  0  0  0  0  0  0  0  0  0  0
  151.5233  140.6395  157.2799 C   0  0  0  0  0  0  0  0  0  0  0  0
  150.4148  140.6888  156.5438 N   0  0  0  0  0  0  0  0  0  0  0  0
  150.7025  139.9265  155.4200 C   0  0  0  0  0  0  0  0  0  0  0  0
  149.7127  139.7291  154.3131 C   0  0  0  0  0  0  0  0  0  0  0  0
  148.4502  138.9970  154.7956 C   0  0  0  0  0  0  0  0  0  0  0  0
  147.9533  138.0598  153.7949 N   0  0  0  0  0  0  0  0  0  0  0  0
  146.6578  137.8204  153.5480 C   0  0  0  0  0  0  0  0  0  0  0  0
  145.7304  138.3756  154.1378 O   0  0  0  0  0  0  0  0  0  0  0  0
  146.4955  136.9052  152.5825 N   0  0  0  0  0  0  0  0  0  0  0  0
  145.2082  136.4444  152.0752 C   0  0  0  0  0  0  0  0  0  0  0  0
  145.3815  135.3497  151.0097 C   0  0  1  0  0  0  0  0  0  0  0  0
  146.2226  134.1658  151.4812 C   0  0  0  0  0  0  0  0  0  0  0  0
  145.7761  133.0796  150.5298 C   0  0  0  0  0  0  0  0  0  0  0  0
  144.2863  133.3793  150.3797 C   0  0  0  0  0  0  0  0  0  0  0  0
  144.1291  134.7695  150.6551 O   0  0  0  0  0  0  0  0  0  0  0  0
  151.9875  139.4611  155.5366 C   0  0  0  0  0  0  0  0  0  0  0  0
  152.8489  138.6180  154.6586 C   0  0  0  0  0  0  0  0  0  0  0  0
  152.5201  139.9045  156.7171 O   0  0  0  0  0  0  0  0  0  0  0  0
  150.8396  141.7218  158.9836 H   0  0  0  0  0  0  0  0  0  0  0  0
  152.5065  142.0790  158.4957 H   0  0  0  0  0  0  0  0  0  0  0  0
  152.1295  140.5526  159.3157 H   0  0  0  0  0  0  0  0  0  0  0  0
  149.4406  140.6957  153.8875 H   0  0  0  0  0  0  0  0  0  0  0  0
  150.1725  139.1648  153.5007 H   0  0  0  0  0  0  0  0  0  0  0  0
  148.6689  138.4383  155.7062 H   0  0  0  0  0  0  0  0  0  0  0  0
  147.6688  139.7147  155.0521 H   0  0  0  0  0  0  0  0  0  0  0  0
  148.6439  137.5567  153.2572 H   0  0  0  0  0  0  0  0  0  0  0  0
  147.3209  136.5061  152.1602 H   0  0  0  0  0  0  0  0  0  0  0  0
  144.6469  136.0448  152.9200 H   0  0  0  0  0  0  0  0  0  0  0  0
  144.6218  137.2768  151.6823 H   0  0  0  0  0  0  0  0  0  0  0  0
  145.8295  135.7678  150.1066 H   0  0  0  0  0  0  0  0  0  0  0  0
  147.2946  134.3598  151.4369 H   0  0  0  0  0  0  0  0  0  0  0  0
  145.9645  133.8930  152.5055 H   0  0  0  0  0  0  0  0  0  0  0  0
  146.2815  133.1952  149.5700 H   0  0  0  0  0  0  0  0  0  0  0  0
  145.9742  132.0739  150.9015 H   0  0  0  0  0  0  0  0  0  0  0  0
  143.9162  133.1285  149.3853 H   0  0  0  0  0  0  0  0  0  0  0  0
  143.7048  132.8148  151.1092 H   0  0  0  0  0  0  0  0  0  0  0  0
  152.5123  138.6633  153.6227 H   0  0  0  0  0  0  0  0  0  0  0  0
  152.8216  137.5763  154.9781 H   0  0  0  0  0  0  0  0  0  0  0  0
  153.8848  138.9562  154.6900 H   0  0  0  0  0  0  0  0  0  0  0  0
  1  2  1  0  0  0  0
  1 20  1  0  0  0  0
  1 21  1  0  0  0  0
  1 22  1  0  0  0  0
  2 19  1  0  0  0  0
  2  3  2  0  0  0  0
  3  4  1  0  0  0  0
  4  5  1  0  0  0  0
  4 17  2  0  0  0  0
  5  6  1  0  0  0  0
  5 23  1  0  0  0  0
  5 24  1  0  0  0  0
  6  7  1  0  0  0  0
  6 25  1  0  0  0  0
  6 26  1  0  0  0  0
  7  8  1  0  0  0  0
  7 27  1  0  0  0  0
  8  9  2  0  0  0  0
  8 10  1  0  0  0  0
 10 11  1  0  0  0  0
 10 28  1  0  0  0  0
 11 12  1  0  0  0  0
 11 29  1  0  0  0  0
 11 30  1  0  0  0  0
 12 16  1  0  0  0  0
 12 13  1  0  0  0  0
 12 31  1  0  0  0  0
 13 14  1  0  0  0  0
 13 32  1  0  0  0  0
 13 33  1  0  0  0  0
 14 15  1  0  0  0  0
 14 34  1  0  0  0  0
 14 35  1  0  0  0  0
 15 16  1  0  0  0  0
 15 36  1  0  0  0  0
 15 37  1  0  0  0  0
 17 18  1  0  0  0  0
 17 19  1  0  0  0  0
 18 38  1  0  0  0  0
 18 39  1  0  0  0  0
 18 40  1  0  0  0  0
M  END
> <s_m_source_file>
AV-unprocessed.smi

> <i_m_source_file_index>
2901

> <i_lp_mmshare_version>
43012

> <i_f3d_flags>
0

> <s_epik_input>
W0NIM11jMW5jKGMobzEpW0NIM10pW0NIMl1bQ0gyXVtOSF1DKD1PKVtOSF1bQ0gyXVtDQEBIXTJbQ0gyXVtDSDJdW0NIMl1PMg==

> <s_epik_cmdline>
J2VwaWtfcHl0aG9uJywgJy1waCcsICc3LjAnLCAnLXRuJywgJzgnLCAnLW1hJywgJzIwMCcsICctbWV0YWxfYmluZGluZycsICctaW1hZScsICc8aW5maWxlLm1hZT4nLCAnLW9tYWUnLCAnPG91dGZpbGUubWFlPic=

> <r_lp_tautomer_probability>
1

> <r_epik_Ionization_Penalty>
9.58254e-05

> <r_epik_Ionization_Penalty_Charging>
0

> <r_epik_Ionization_Penalty_Neutral>
9.58254e-05

> <r_epik_State_Penalty>
-0

> <r_epik_Charging_Adjusted_Penalty>
0

> <i_epik_Tot_Q>
0

> <i_epik_Tot_abs_Q>
0

> <r_epik_Metal_State_Penalty>
-0

> <b_epik_Metal_Only>
0

> <s_lp_Force_Field>
OPLS_2005

> <r_lp_Energy>
8.56878

> <b_lp_Chiralities_Consistent>
1

> <s_lp_Variant>
AV-unprocessed.smi:2901-2

> <Gold.Version>
5.8.1

> <Gold.Id.Protein>
6NUR|6NUR_protein|mol2

> <Gold.PLP.Fitness>
41.4210

> <Gold.PLP.PLP>
-33.4716

> <Gold.PLP.part.hbond>
-3.0000

> <Gold.PLP.part.metal>
0.0000

> <Gold.PLP.part.buried>
-4.7126

> <Gold.PLP.part.nonpolar>
-26.8960

> <Gold.PLP.part.repulsive>
0.4438

> <Gold.PLP.ligand.clash>
0.0000

> <Gold.PLP.ligand.torsion>
0.4598

> <Gold.PLP.Chemscore.Hbond>
2.9440

> <Gold.PLP.Chemscore.CHOScore>
0.0000

> <Gold.PLP.Chemscore.Metal>
0.0000

> <Gold.Chemscore.Hbonds>
donor molecule, donor type, donor heavy atom, donor atom, acceptor molecule, acceptor atom, score
      L1  H     7    27       P1  7948  0.94
      L1  H    10    28       P1  7948  1.00
      P1  H  7997  8010       L1    19  1.00

> <Gold.PLP.Chemscore.Internal.Correction>
0.0370

> <Gold.Rescore>
     Score         DG    S(hbond)    S(metal)    S(lipo)     H(rot)  DE(clash)    DE(int)     intcor
     18.43     -19.23       2.93        0.00      75.80       1.92       0.35       0.45       ----

> <Gold.Chemscore.Fitness>
18.4288

> <Gold.Chemscore.DG>
-19.2259

> <Gold.Chemscore.ZeroCoef>
-5.4800

> <Gold.Chemscore.Hbond>
2.9293

> <Gold.Chemscore.Metal>
0.0000

> <Gold.Chemscore.Lipo>
75.8037

> <Gold.Chemscore.Internal_Hbond>
0.0000

> <Gold.Chemscore.DEClash>
0.3454

> <Gold.Chemscore.DEInternal>
0.4517

> <Gold.Chemscore.Rot>
1.9167

> <Gold.Chemscore.Internal.Correction>
   9.000000E+99

> <Gold.Chemscore.Hbonds>
donor molecule, donor type, donor heavy atom, donor atom, acceptor molecule, acceptor atom, score
      L1  H     7    27       P1  7948  0.90
      L1  H    10    28       P1  7948  0.99
      P1  H  7997  8010       L1    19  0.86

> <Gold.Chemscore.Hbond.Weighted>
-9.7837

> <Gold.Chemscore.Metal.Weighted>
-0.0000

> <Gold.Chemscore.Lipo.Weighted>
-8.8690

> <Gold.Chemscore.Internal_Hbond.Weighted>
0.0000

> <Gold.Chemscore.DEClash.Weighted>
0.3454

> <Gold.Chemscore.DEInternal.Weighted>
0.4517

> <Gold.Chemscore.Rot.Weighted>
4.9069

> <Gold.Chemscore.Internal.Correction.Weighted>
   9.000000E+99

> <Gold.Protein.RotatedTorsions>
[ 6907 6896 6895 6894 ] final  129.44 input  -60.11 | X-H torsion
[ 7974 7965 7964 7962 ] final   88.88 input  175.53 | X-H torsion
[ 8008 7997 7996 7995 ] final   56.63 input   59.86 | X-H torsion
[ 10167 10162 10161 10158 ] final  117.19 input  -65.29 | X-H torsion
[ 10718 10713 10712 10709 ] final -161.12 input   66.30 | X-H torsion
[ 10763 10752 10751 10750 ] final   -8.95 input  -60.55 | X-H torsion
[ 11005 11000 10999 10996 ] final  -82.15 input  -57.11 | X-H torsion

> <Gold.Protein.ActiveResidues>
 VAL166  LYS551  ARG553  GLY616  TRP617  ASP618  TYR619  PRO620  LYS621  CYS622 
 ASP623  PHE694  ASN695  SER759  ASP760  ASP761  ALA762  ILE779  LEU786  VAL792 
 PHE793  MET794  SER795  GLU796  ALA797  LYS798  CYS799  TRP800  GLU811  SER814 

> <Gold.Protein.RotatedAtoms>
  152.3623  133.6313  159.6024 H   0  0  0  0  0  0  0  0  0  0  0  0  # atno 6907 bound_to 6896
  150.7610  133.9403  159.3463 H   0  0  0  0  0  0  0  0  0  0  0  0  # atno 6908 bound_to 6896
  151.7239  135.0889  160.0340 H   0  0  0  0  0  0  0  0  0  0  0  0  # atno 6909 bound_to 6896
  145.5398  139.2288  143.2572 H   0  0  0  0  0  0  0  0  0  0  0  0  # atno 7974 bound_to 7965
  155.5207  140.3479  155.4406 H   0  0  0  0  0  0  0  0  0  0  0  0  # atno 8008 bound_to 7997
  156.0786  140.1381  156.9767 H   0  0  0  0  0  0  0  0  0  0  0  0  # atno 8009 bound_to 7997
  154.4567  140.0950  156.6754 H   0  0  0  0  0  0  0  0  0  0  0  0  # atno 8010 bound_to 7997
  139.6196  144.7098  151.2664 H   0  0  0  0  0  0  0  0  0  0  0  0  # atno 10167 bound_to 10162
  156.5917  130.8773  151.2891 H   0  0  0  0  0  0  0  0  0  0  0  0  # atno 10718 bound_to 10713
  153.4478  135.7014  153.6128 H   0  0  0  0  0  0  0  0  0  0  0  0  # atno 10763 bound_to 10752
  153.4476  135.3765  155.2265 H   0  0  0  0  0  0  0  0  0  0  0  0  # atno 10764 bound_to 10752
  154.8728  135.3989  154.3886 H   0  0  0  0  0  0  0  0  0  0  0  0  # atno 10765 bound_to 10752
  141.1664  133.7231  156.8529 H   0  0  0  0  0  0  0  0  0  0  0  0  # atno 11005 bound_to 11000
  146.1989  140.6218  142.9111 LP  0  0  0  0  0  0  0  0  0  0  0  0  # atno 17320 bound_to 7965
  144.7583  140.5360  143.6753 LP  0  0  0  0  0  0  0  0  0  0  0  0  # atno 17321 bound_to 7965
  140.7373  143.6681  150.8105 LP  0  0  0  0  0  0  0  0  0  0  0  0  # atno 17342 bound_to 10162
  140.0290  143.5463  152.2768 LP  0  0  0  0  0  0  0  0  0  0  0  0  # atno 17343 bound_to 10162
  157.7302  130.9682  150.1821 LP  0  0  0  0  0  0  0  0  0  0  0  0  # atno 17370 bound_to 10713
  156.2544  130.3704  149.8197 LP  0  0  0  0  0  0  0  0  0  0  0  0  # atno 17371 bound_to 10713
  140.1903  134.8970  157.3052 LP  0  0  0  0  0  0  0  0  0  0  0  0  # atno 17394 bound_to 11000
  140.2298  134.3923  155.7527 LP  0  0  0  0  0  0  0  0  0  0  0  0  # atno 17395 bound_to 11000

$$$$
