AV-unprocessed.smi:2784|AV-procd|sdf|10728|dock2
  -GOLD-   2272015163D 1   1.00000     0.00000
 Structure written by MMmdl.
 31 32  0  0  0  0  0  0  0  0  1 V2000
  152.8948  142.8447  161.9592 C   0  0  0  0  0  0  0  0  0  0  0  0
  152.5234  142.6485  160.6043 O   0  0  0  0  0  0  0  0  0  0  0  0
  152.5461  143.8413  159.8244 C   0  0  2  0  0  0  0  0  0  0  0  0
  151.5889  144.8625  160.4483 C   0  0  0  0  0  0  0  0  0  0  0  0
  150.2130  144.4433  159.9376 C   0  0  0  0  0  0  0  0  0  0  0  0
  150.4585  143.9561  158.5067 C   0  0  0  0  0  0  0  0  0  0  0  0
  151.9489  143.5710  158.4243 C   0  0  2  0  0  0  0  0  0  0  0  0
  152.1175  142.1872  157.9851 N   0  0  0  0  0  0  0  0  0  0  0  0
  151.5382  141.6539  156.8999 C   0  0  0  0  0  0  0  0  0  0  0  0
  150.7843  142.2811  156.1551 O   0  0  0  0  0  0  0  0  0  0  0  0
  151.8908  140.3675  156.7407 N   0  0  0  0  0  0  0  0  0  0  0  0
  151.4934  139.4853  155.7048 C   0  0  0  0  0  0  0  0  0  0  0  0
  150.7176  139.7827  154.6610 N   0  0  0  0  0  0  0  0  0  0  0  0
  150.6258  138.5979  153.9448 C   0  0  0  0  0  0  0  0  0  0  0  0
  151.3581  137.6430  154.6024 C   0  0  0  0  0  0  0  0  0  0  0  0
  151.9169  138.1938  155.7243 O   0  0  0  0  0  0  0  0  0  0  0  0
  152.8331  141.8973  162.4942 H   0  0  0  0  0  0  0  0  0  0  0  0
  152.2390  143.5565  162.4607 H   0  0  0  0  0  0  0  0  0  0  0  0
  153.9221  143.2036  162.0340 H   0  0  0  0  0  0  0  0  0  0  0  0
  153.5637  144.2270  159.7371 H   0  0  0  0  0  0  0  0  0  0  0  0
  151.6376  144.9014  161.5365 H   0  0  0  0  0  0  0  0  0  0  0  0
  151.8265  145.8590  160.0737 H   0  0  0  0  0  0  0  0  0  0  0  0
  149.8351  143.6200  160.5452 H   0  0  0  0  0  0  0  0  0  0  0  0
  149.4837  145.2524  159.9855 H   0  0  0  0  0  0  0  0  0  0  0  0
  149.7904  143.1307  158.2565 H   0  0  0  0  0  0  0  0  0  0  0  0
  150.2503  144.7601  157.7996 H   0  0  0  0  0  0  0  0  0  0  0  0
  152.4262  144.2351  157.7009 H   0  0  0  0  0  0  0  0  0  0  0  0
  152.7294  141.6048  158.5376 H   0  0  0  0  0  0  0  0  0  0  0  0
  152.5140  139.9777  157.4320 H   0  0  0  0  0  0  0  0  0  0  0  0
  150.0522  138.5272  153.0325 H   0  0  0  0  0  0  0  0  0  0  0  0
  151.5677  136.5998  154.4174 H   0  0  0  0  0  0  0  0  0  0  0  0
  1  2  1  0  0  0  0
  1 17  1  0  0  0  0
  1 18  1  0  0  0  0
  1 19  1  0  0  0  0
  2  3  1  0  0  0  0
  3  7  1  0  0  0  0
  3  4  1  0  0  0  0
  3 20  1  0  0  0  0
  4  5  1  0  0  0  0
  4 21  1  0  0  0  0
  4 22  1  0  0  0  0
  5  6  1  0  0  0  0
  5 23  1  0  0  0  0
  5 24  1  0  0  0  0
  6  7  1  0  0  0  0
  6 25  1  0  0  0  0
  6 26  1  0  0  0  0
  7  8  1  0  0  0  0
  7 27  1  0  0  0  0
  8  9  1  0  0  0  0
  8 28  1  0  0  0  0
  9 10  2  0  0  0  0
  9 11  1  0  0  0  0
 11 12  1  0  0  0  0
 11 29  1  0  0  0  0
 12 16  1  0  0  0  0
 12 13  2  0  0  0  0
 13 14  1  0  0  0  0
 14 15  2  0  0  0  0
 14 30  1  0  0  0  0
 15 16  1  0  0  0  0
 15 31  1  0  0  0  0
M  END
> <s_m_source_file>
AV-unprocessed.smi

> <i_m_source_file_index>
2784

> <i_lp_mmshare_version>
43012

> <i_f3d_flags>
0

> <s_epik_input>
W0NIM11PW0NAQEhdMVtDSDJdW0NIMl1bQ0gyXVtDQEhdMVtOSF1DKD1PKVtOSF1jMm5bY0hdW2NIXW8y

> <s_epik_cmdline>
J2VwaWtfcHl0aG9uJywgJy1waCcsICc3LjAnLCAnLXRuJywgJzgnLCAnLW1hJywgJzIwMCcsICctbWV0YWxfYmluZGluZycsICctaW1hZScsICc8aW5maWxlLm1hZT4nLCAnLW9tYWUnLCAnPG91dGZpbGUubWFlPic=

> <r_lp_tautomer_probability>
0.785861

> <r_epik_Ionization_Penalty>
4.58897e-05

> <r_epik_Ionization_Penalty_Charging>
0

> <r_epik_Ionization_Penalty_Neutral>
4.58897e-05

> <r_epik_State_Penalty>
0.0380021

> <r_epik_Charging_Adjusted_Penalty>
0.0380021

> <i_epik_Tot_Q>
0

> <i_epik_Tot_abs_Q>
0

> <r_epik_Metal_State_Penalty>
0.0585611

> <b_epik_Metal_Only>
0

> <s_lp_Force_Field>
OPLS_2005

> <r_lp_Energy>
20.0171

> <b_lp_Chiralities_Consistent>
1

> <s_lp_Variant>
AV-unprocessed.smi:2784-3

> <Gold.Version>
5.8.1

> <Gold.Id.Protein>
6NUR|6NUR_protein|mol2

> <Gold.PLP.Fitness>
39.3787

> <Gold.PLP.PLP>
-31.7738

> <Gold.PLP.part.hbond>
-1.0000

> <Gold.PLP.part.metal>
0.0000

> <Gold.PLP.part.buried>
-6.0171

> <Gold.PLP.part.nonpolar>
-26.0493

> <Gold.PLP.part.repulsive>
0.5286

> <Gold.PLP.ligand.clash>
0.0000

> <Gold.PLP.ligand.torsion>
0.0980

> <Gold.PLP.Chemscore.Hbond>
1.0000

> <Gold.PLP.Chemscore.CHOScore>
1.5963

> <Gold.PLP.Chemscore.Metal>
0.0000

> <Gold.Chemscore.Hbonds>
donor molecule, donor type, donor heavy atom, donor atom, acceptor molecule, acceptor atom, score
      P1  H  7989  7998       L1    13  1.00
      L1  C    14    30       P1  7948  0.43
      L1  C    14    30       P1  7957  1.00

> <Gold.PLP.Chemscore.Internal.Correction>
0.0119

> <Gold.Rescore>
     Score         DG    S(hbond)    S(metal)    S(lipo)     H(rot)  DE(clash)    DE(int)     intcor
     12.30     -14.71       0.92        0.00      81.47       1.32       0.15       2.26       ----

> <Gold.Chemscore.Fitness>
12.3041

> <Gold.Chemscore.DG>
-14.7084

> <Gold.Chemscore.ZeroCoef>
-5.4800

> <Gold.Chemscore.Hbond>
0.9236

> <Gold.Chemscore.Metal>
0.0000

> <Gold.Chemscore.Lipo>
81.4676

> <Gold.Chemscore.Internal_Hbond>
0.0000

> <Gold.Chemscore.DEClash>
0.1493

> <Gold.Chemscore.DEInternal>
2.2551

> <Gold.Chemscore.Rot>
1.3235

> <Gold.Chemscore.Internal.Correction>
   9.000000E+99

> <Gold.Chemscore.Hbonds>
donor molecule, donor type, donor heavy atom, donor atom, acceptor molecule, acceptor atom, score
      P1  H  7989  7998       L1    13  0.26

> <Gold.Chemscore.Hbond.Weighted>
-3.0849

> <Gold.Chemscore.Metal.Weighted>
-0.0000

> <Gold.Chemscore.Lipo.Weighted>
-9.5317

> <Gold.Chemscore.Internal_Hbond.Weighted>
0.0000

> <Gold.Chemscore.DEClash.Weighted>
0.1493

> <Gold.Chemscore.DEInternal.Weighted>
2.2551

> <Gold.Chemscore.Rot.Weighted>
3.3882

> <Gold.Chemscore.Internal.Correction.Weighted>
   9.000000E+99

> <Gold.Protein.RotatedTorsions>
[ 6907 6896 6895 6894 ] final -107.22 input  -60.11 | X-H torsion
[ 7974 7965 7964 7962 ] final   78.38 input  175.53 | X-H torsion
[ 8008 7997 7996 7995 ] final  -47.99 input   59.86 | X-H torsion
[ 10167 10162 10161 10158 ] final  134.64 input  -65.29 | X-H torsion
[ 10718 10713 10712 10709 ] final  153.98 input   66.30 | X-H torsion
[ 10763 10752 10751 10750 ] final    9.13 input  -60.55 | X-H torsion
[ 11005 11000 10999 10996 ] final -174.59 input  -57.11 | X-H torsion

> <Gold.Protein.ActiveResidues>
 VAL166  LYS551  ARG553  GLY616  TRP617  ASP618  TYR619  PRO620  LYS621  CYS622 
 ASP623  PHE694  ASN695  SER759  ASP760  ASP761  ALA762  ILE779  LEU786  VAL792 
 PHE793  MET794  SER795  GLU796  ALA797  LYS798  CYS799  TRP800  GLU811  SER814 

> <Gold.Protein.RotatedAtoms>
  150.7432  133.9858  159.3590 H   0  0  0  0  0  0  0  0  0  0  0  0  # atno 6907 bound_to 6896
  151.7803  135.0761  160.0382 H   0  0  0  0  0  0  0  0  0  0  0  0  # atno 6908 bound_to 6896
  152.3279  133.5888  159.5825 H   0  0  0  0  0  0  0  0  0  0  0  0  # atno 6909 bound_to 6896
  145.6778  139.2515  143.1831 H   0  0  0  0  0  0  0  0  0  0  0  0  # atno 7974 bound_to 7965
  154.4023  140.1332  156.4265 H   0  0  0  0  0  0  0  0  0  0  0  0  # atno 8008 bound_to 7997
  155.7592  140.3486  155.5169 H   0  0  0  0  0  0  0  0  0  0  0  0  # atno 8009 bound_to 7997
  155.8875  140.0997  157.1432 H   0  0  0  0  0  0  0  0  0  0  0  0  # atno 8010 bound_to 7997
  139.5248  144.6557  151.5169 H   0  0  0  0  0  0  0  0  0  0  0  0  # atno 10167 bound_to 10162
  157.2376  131.0752  151.1813 H   0  0  0  0  0  0  0  0  0  0  0  0  # atno 10718 bound_to 10713
  153.2173  135.6877  153.8041 H   0  0  0  0  0  0  0  0  0  0  0  0  # atno 10763 bound_to 10752
  153.7253  135.3261  155.3276 H   0  0  0  0  0  0  0  0  0  0  0  0  # atno 10764 bound_to 10752
  154.8252  135.4623  154.1006 H   0  0  0  0  0  0  0  0  0  0  0  0  # atno 10765 bound_to 10752
  140.4728  134.6149  157.4889 H   0  0  0  0  0  0  0  0  0  0  0  0  # atno 11005 bound_to 11000
  146.0990  140.7566  142.9558 LP  0  0  0  0  0  0  0  0  0  0  0  0  # atno 17320 bound_to 7965
  144.7036  140.3757  143.7136 LP  0  0  0  0  0  0  0  0  0  0  0  0  # atno 17321 bound_to 7965
  140.6381  143.8943  150.6666 LP  0  0  0  0  0  0  0  0  0  0  0  0  # atno 17342 bound_to 10162
  140.2269  143.3766  152.1598 LP  0  0  0  0  0  0  0  0  0  0  0  0  # atno 17343 bound_to 10162
  157.3412  130.7034  149.6383 LP  0  0  0  0  0  0  0  0  0  0  0  0  # atno 17370 bound_to 10713
  155.9672  130.4279  150.4765 LP  0  0  0  0  0  0  0  0  0  0  0  0  # atno 17371 bound_to 10713
  139.9874  134.7039  155.9749 LP  0  0  0  0  0  0  0  0  0  0  0  0  # atno 17394 bound_to 11000
  141.1568  133.6542  156.4189 LP  0  0  0  0  0  0  0  0  0  0  0  0  # atno 17395 bound_to 11000

$$$$
