AV-unprocessed.smi:2391|AV-procd|sdf|9485|dock1
  -GOLD-   2272013113D 1   1.00000     0.00000
 Structure written by MMmdl.
 34 35  0  0  0  0  0  0  0  0  2 V2000
  151.1480  139.7700  158.5615 O   0  0  0  0  0  0  0  0  0  0  0  0
  152.3033  139.8674  158.1417 C   0  0  0  0  0  0  0  0  0  0  0  0
  152.7892  139.3254  157.0006 N   0  5  0  0  0  0  0  0  0  0  0  0
  151.9842  139.1357  155.9443 C   0  0  0  0  0  0  0  0  0  0  0  0
  150.9511  140.0570  155.6608 C   0  0  0  0  0  0  0  0  0  0  0  0
  150.1254  139.8164  154.5499 C   0  0  0  0  0  0  0  0  0  0  0  0
  150.3858  138.6603  153.7955 C   0  0  0  0  0  0  0  0  0  0  0  0
  151.3794  137.8002  154.1062 N   0  0  0  0  0  0  0  0  0  0  0  0
  152.1606  138.0376  155.1661 N   0  0  0  0  0  0  0  0  0  0  0  0
  153.2157  140.5598  158.8386 N   0  0  0  0  0  0  0  0  0  0  0  0
  152.9994  141.2640  160.1046 C   0  0  2  0  0  0  0  0  0  0  0  0
  153.0432  142.7911  159.8417 C   0  0  0  0  0  0  0  0  0  0  0  0
  152.3421  143.6563  160.8972 C   0  0  0  0  0  0  0  0  0  0  0  0
  152.0295  144.9895  160.2066 C   0  0  0  0  0  0  0  0  0  0  0  0
  152.1104  144.7255  158.6971 C   0  0  0  0  0  0  0  0  0  0  0  0
  152.3491  143.2217  158.5427 C   0  0  0  0  0  0  0  0  0  0  0  0
  154.0328  140.7800  161.1510 C   0  0  0  0  0  0  0  0  0  0  0  0
  155.2725  140.9074  160.6764 F   0  0  0  0  0  0  0  0  0  0  0  0
  153.9317  141.4925  162.2739 F   0  0  0  0  0  0  0  0  0  0  0  0
  153.8472  139.4929  161.4413 F   0  0  0  0  0  0  0  0  0  0  0  0
  150.7982  140.9296  156.2789 H   0  0  0  0  0  0  0  0  0  0  0  0
  149.3250  140.4919  154.2877 H   0  0  0  0  0  0  0  0  0  0  0  0
  149.7873  138.4191  152.9296 H   0  0  0  0  0  0  0  0  0  0  0  0
  154.1477  140.6045  158.4536 H   0  0  0  0  0  0  0  0  0  0  0  0
  152.0022  141.0246  160.4783 H   0  0  0  0  0  0  0  0  0  0  0  0
  154.0850  143.1105  159.7820 H   0  0  0  0  0  0  0  0  0  0  0  0
  151.4091  143.1820  161.2048 H   0  0  0  0  0  0  0  0  0  0  0  0
  152.9497  143.7993  161.7909 H   0  0  0  0  0  0  0  0  0  0  0  0
  151.0461  145.3594  160.4991 H   0  0  0  0  0  0  0  0  0  0  0  0
  152.7597  145.7480  160.4913 H   0  0  0  0  0  0  0  0  0  0  0  0
  151.2098  145.0469  158.1728 H   0  0  0  0  0  0  0  0  0  0  0  0
  152.9501  145.2780  158.2739 H   0  0  0  0  0  0  0  0  0  0  0  0
  152.9363  142.9890  157.6536 H   0  0  0  0  0  0  0  0  0  0  0  0
  151.3910  142.7085  158.4467 H   0  0  0  0  0  0  0  0  0  0  0  0
  1  2  2  0  0  0  0
  2  3  1  0  0  0  0
  2 10  1  0  0  0  0
  3  4  1  0  0  0  0
  4  9  1  0  0  0  0
  4  5  2  0  0  0  0
  5  6  1  0  0  0  0
  5 21  1  0  0  0  0
  6  7  2  0  0  0  0
  6 22  1  0  0  0  0
  7  8  1  0  0  0  0
  7 23  1  0  0  0  0
  8  9  2  0  0  0  0
 10 11  1  0  0  0  0
 10 24  1  0  0  0  0
 11 12  1  0  0  0  0
 11 17  1  0  0  0  0
 11 25  1  0  0  0  0
 12 16  1  0  0  0  0
 12 13  1  0  0  0  0
 12 26  1  0  0  0  0
 13 14  1  0  0  0  0
 13 27  1  0  0  0  0
 13 28  1  0  0  0  0
 14 15  1  0  0  0  0
 14 29  1  0  0  0  0
 14 30  1  0  0  0  0
 15 16  1  0  0  0  0
 15 31  1  0  0  0  0
 15 32  1  0  0  0  0
 16 33  1  0  0  0  0
 16 34  1  0  0  0  0
 17 18  1  0  0  0  0
 17 19  1  0  0  0  0
 17 20  1  0  0  0  0
M  CHG  1   3  -1
M  END
> <s_m_source_file>
AV-unprocessed.smi

> <i_m_source_file_index>
2391

> <i_lp_mmshare_version>
43012

> <i_f3d_flags>
0

> <s_epik_input>
W0NIMl0xW0NIMl1bQ0gyXVtDSDJdW0NIXTFbQ0BIXShDKEYpKEYpRilbTkhdQyg9TylbTkhdYzJbY0hdW2NIXVtjSF1ubjI=

> <s_epik_cmdline>
J2VwaWtfcHl0aG9uJywgJy1waCcsICc3LjAnLCAnLXRuJywgJzgnLCAnLW1hJywgJzIwMCcsICctbWV0YWxfYmluZGluZycsICctaW1hZScsICc8aW5maWxlLm1hZT4nLCAnLW9tYWUnLCAnPG91dGZpbGUubWFlPic=

> <r_lp_tautomer_probability>
1

> <r_epik_Ionization_Penalty>
8.90766

> <r_epik_Ionization_Penalty_Charging>
5.82661

> <r_epik_Ionization_Penalty_Neutral>
3.08106

> <r_epik_State_Penalty>
5.83894

> <r_epik_Charging_Adjusted_Penalty>
11.6655

> <i_epik_Tot_Q>
-1

> <i_epik_Tot_abs_Q>
1

> <r_epik_Metal_State_Penalty>
1.80768

> <b_epik_Metal_Only>
1

> <s_lp_Force_Field>
OPLS_2005

> <r_lp_Energy>
28.0244

> <b_lp_Chiralities_Consistent>
1

> <s_lp_Variant>
AV-unprocessed.smi:2391-5

> <Gold.Version>
5.8.1

> <Gold.Id.Protein>
6NUR|6NUR_protein|mol2

> <Gold.PLP.Fitness>
53.3228

> <Gold.PLP.PLP>
-43.2265

> <Gold.PLP.part.hbond>
-1.0000

> <Gold.PLP.part.metal>
0.0000

> <Gold.PLP.part.buried>
-0.1666

> <Gold.PLP.part.nonpolar>
-41.4677

> <Gold.PLP.part.repulsive>
0.4465

> <Gold.PLP.ligand.clash>
0.0000

> <Gold.PLP.ligand.torsion>
0.9386

> <Gold.PLP.Chemscore.Hbond>
2.0000

> <Gold.PLP.Chemscore.CHOScore>
1.7638

> <Gold.PLP.Chemscore.Metal>
0.0000

> <Gold.Chemscore.Hbonds>
donor molecule, donor type, donor heavy atom, donor atom, acceptor molecule, acceptor atom, score
      P1  H  7997  8008       L1     3  2.00
      L1  C     7    23       P1  7948  1.00
      L1  C     7    23       P1  7957  0.79

> <Gold.PLP.Chemscore.Internal.Correction>
0.6823

> <Gold.Rescore>
     Score         DG    S(hbond)    S(metal)    S(lipo)     H(rot)  DE(clash)    DE(int)     intcor
     13.92     -16.64       0.77        0.00     102.17       1.32       0.49       2.23       ----

> <Gold.Chemscore.Fitness>
13.9233

> <Gold.Chemscore.DG>
-16.6416

> <Gold.Chemscore.ZeroCoef>
-5.4800

> <Gold.Chemscore.Hbond>
0.7730

> <Gold.Chemscore.Metal>
0.0000

> <Gold.Chemscore.Lipo>
102.1676

> <Gold.Chemscore.Internal_Hbond>
0.0000

> <Gold.Chemscore.DEClash>
0.4873

> <Gold.Chemscore.DEInternal>
2.2311

> <Gold.Chemscore.Rot>
1.3179

> <Gold.Chemscore.Internal.Correction>
   9.000000E+99

> <Gold.Chemscore.Hbonds>
donor molecule, donor type, donor heavy atom, donor atom, acceptor molecule, acceptor atom, score
      P1  H  7997  8008       L1     3  0.53

> <Gold.Chemscore.Hbond.Weighted>
-2.5817

> <Gold.Chemscore.Metal.Weighted>
-0.0000

> <Gold.Chemscore.Lipo.Weighted>
-11.9536

> <Gold.Chemscore.Internal_Hbond.Weighted>
0.0000

> <Gold.Chemscore.DEClash.Weighted>
0.4873

> <Gold.Chemscore.DEInternal.Weighted>
2.2311

> <Gold.Chemscore.Rot.Weighted>
3.3737

> <Gold.Chemscore.Internal.Correction.Weighted>
   9.000000E+99

> <Gold.Protein.RotatedTorsions>
[ 6907 6896 6895 6894 ] final   52.72 input  -60.11 | X-H torsion
[ 7974 7965 7964 7962 ] final -107.46 input  175.53 | X-H torsion
[ 8008 7997 7996 7995 ] final  -41.81 input   59.86 | X-H torsion
[ 10167 10162 10161 10158 ] final  -63.83 input  -65.29 | X-H torsion
[ 10718 10713 10712 10709 ] final   69.25 input   66.30 | X-H torsion
[ 10763 10752 10751 10750 ] final  -37.08 input  -60.55 | X-H torsion
[ 11005 11000 10999 10996 ] final  104.08 input  -57.11 | X-H torsion

> <Gold.Protein.ActiveResidues>
 VAL166  LYS551  ARG553  GLY616  TRP617  ASP618  TYR619  PRO620  LYS621  CYS622 
 ASP623  PHE694  ASN695  SER759  ASP760  ASP761  ALA762  ILE779  LEU786  VAL792 
 PHE793  MET794  SER795  GLU796  ALA797  LYS798  CYS799  TRP800  GLU811  SER814 

> <Gold.Protein.RotatedAtoms>
  152.3262  134.7317  160.0300 H   0  0  0  0  0  0  0  0  0  0  0  0  # atno 6907 bound_to 6896
  151.7749  133.3339  159.3463 H   0  0  0  0  0  0  0  0  0  0  0  0  # atno 6908 bound_to 6896
  150.7397  134.5916  159.6035 H   0  0  0  0  0  0  0  0  0  0  0  0  # atno 6909 bound_to 6896
  145.2050  140.9072  143.3347 H   0  0  0  0  0  0  0  0  0  0  0  0  # atno 7974 bound_to 7965
  154.4002  140.1489  156.3252 H   0  0  0  0  0  0  0  0  0  0  0  0  # atno 8008 bound_to 7997
  155.8493  140.3458  155.5661 H   0  0  0  0  0  0  0  0  0  0  0  0  # atno 8009 bound_to 7997
  155.8002  140.0869  157.1952 H   0  0  0  0  0  0  0  0  0  0  0  0  # atno 8010 bound_to 7997
  140.5844  143.2331  151.6275 H   0  0  0  0  0  0  0  0  0  0  0  0  # atno 10167 bound_to 10162
  157.6335  130.9416  150.0488 H   0  0  0  0  0  0  0  0  0  0  0  0  # atno 10718 bound_to 10713
  153.8903  135.6813  153.4761 H   0  0  0  0  0  0  0  0  0  0  0  0  # atno 10763 bound_to 10752
  153.1184  135.4751  154.9153 H   0  0  0  0  0  0  0  0  0  0  0  0  # atno 10764 bound_to 10752
  154.7625  135.3215  154.8303 H   0  0  0  0  0  0  0  0  0  0  0  0  # atno 10765 bound_to 10752
  139.8789  134.9287  156.5307 H   0  0  0  0  0  0  0  0  0  0  0  0  # atno 11005 bound_to 11000
  144.9911  139.3689  143.6214 LP  0  0  0  0  0  0  0  0  0  0  0  0  # atno 17320 bound_to 7965
  146.3409  139.9093  142.8782 LP  0  0  0  0  0  0  0  0  0  0  0  0  # atno 17321 bound_to 7965
  139.5188  144.3271  152.0859 LP  0  0  0  0  0  0  0  0  0  0  0  0  # atno 17342 bound_to 10162
  140.2426  144.4253  150.6254 LP  0  0  0  0  0  0  0  0  0  0  0  0  # atno 17343 bound_to 10162
  156.1556  130.3643  149.9374 LP  0  0  0  0  0  0  0  0  0  0  0  0  # atno 17370 bound_to 10713
  156.7383  130.9070  151.3630 LP  0  0  0  0  0  0  0  0  0  0  0  0  # atno 17371 bound_to 10713
  140.8383  133.8225  155.9050 LP  0  0  0  0  0  0  0  0  0  0  0  0  # atno 17394 bound_to 11000
  140.9262  134.2079  157.4894 LP  0  0  0  0  0  0  0  0  0  0  0  0  # atno 17395 bound_to 11000

$$$$
