AV-unprocessed.smi:1870|AV-procd|sdf|7595|dock3
  -GOLD-   22720 9313D 1   1.00000     0.00000
 Structure written by MMmdl.
 48 50  0  0  0  0  0  0  0  0  2 V2000
  144.6102  132.9812  157.3624 C   0  0  0  0  0  0  0  0  0  0  0  0
  145.7242  133.9012  157.7845 C   0  0  0  0  0  0  0  0  0  0  0  0
  146.8350  133.8057  157.1301 N   0  0  0  0  0  0  0  0  0  0  0  0
  147.9199  134.6052  157.4338 N   0  0  0  0  0  0  0  0  0  0  0  0
  149.0999  134.3526  156.5979 C   0  0  0  0  0  0  0  0  0  0  0  0
  148.7690  134.4343  155.0919 C   0  0  2  0  0  0  0  0  0  0  0  0
  149.8539  135.0465  154.4212 O   0  0  0  0  0  0  0  0  0  0  0  0
  147.5193  135.3016  154.8340 C   0  0  0  0  0  0  0  0  0  0  0  0
  146.9854  135.1547  153.4544 N   0  3  2  0  0  0  0  0  0  0  0  0
  145.8830  136.1036  153.1700 C   0  0  0  0  0  0  0  0  0  0  0  0
  145.5977  136.1475  151.6634 C   0  0  0  0  0  0  0  0  0  0  0  0
  145.4284  134.7619  151.0683 C   0  0  0  0  0  0  0  0  0  0  0  0
  144.8013  134.6091  149.8145 C   0  0  0  0  0  0  0  0  0  0  0  0
  144.6750  133.3310  149.2380 C   0  0  0  0  0  0  0  0  0  0  0  0
  145.1785  132.2023  149.9117 C   0  0  0  0  0  0  0  0  0  0  0  0
  145.8058  132.3508  151.1637 C   0  0  0  0  0  0  0  0  0  0  0  0
  145.9339  133.6281  151.7487 C   0  0  0  0  0  0  0  0  0  0  0  0
  146.5940  133.7595  153.1164 C   0  0  0  0  0  0  0  0  0  0  0  0
  147.9398  135.5454  158.4212 C   0  0  0  0  0  0  0  0  0  0  0  0
  148.9328  136.2332  158.6620 O   0  0  0  0  0  0  0  0  0  0  0  0
  146.6777  135.6496  159.1574 C   0  0  0  0  0  0  0  0  0  0  0  0
  146.6519  136.6287  160.1959 C   0  0  0  0  0  0  0  0  0  0  0  0
  146.6115  137.4275  161.0328 N   0  0  0  0  0  0  0  0  0  0  0  0
  145.6061  134.8687  158.8705 C   0  0  0  0  0  0  0  0  0  0  0  0
  144.2747  134.9381  159.6061 C   0  0  0  0  0  0  0  0  0  0  0  0
  143.7092  133.5463  157.1239 H   0  0  0  0  0  0  0  0  0  0  0  0
  144.3681  132.2775  158.1591 H   0  0  0  0  0  0  0  0  0  0  0  0
  144.8752  132.3999  156.4780 H   0  0  0  0  0  0  0  0  0  0  0  0
  149.8429  135.1142  156.8424 H   0  0  0  0  0  0  0  0  0  0  0  0
  149.5862  133.4065  156.8439 H   0  0  0  0  0  0  0  0  0  0  0  0
  148.6216  133.4298  154.6966 H   0  0  0  0  0  0  0  0  0  0  0  0
  149.5136  135.6265  153.7567 H   0  0  0  0  0  0  0  0  0  0  0  0
  146.7301  135.0560  155.5464 H   0  0  0  0  0  0  0  0  0  0  0  0
  147.7801  136.3449  155.0197 H   0  0  0  0  0  0  0  0  0  0  0  0
  144.9918  135.7982  153.7208 H   0  0  0  0  0  0  0  0  0  0  0  0
  146.1388  137.1077  153.5102 H   0  0  0  0  0  0  0  0  0  0  0  0
  144.7035  136.7420  151.4717 H   0  0  0  0  0  0  0  0  0  0  0  0
  146.4211  136.6397  151.1445 H   0  0  0  0  0  0  0  0  0  0  0  0
  144.4210  135.4725  149.2881 H   0  0  0  0  0  0  0  0  0  0  0  0
  144.1954  133.2168  148.2770 H   0  0  0  0  0  0  0  0  0  0  0  0
  145.0827  131.2219  149.4684 H   0  0  0  0  0  0  0  0  0  0  0  0
  146.1847  131.4787  151.6763 H   0  0  0  0  0  0  0  0  0  0  0  0
  147.4695  133.1115  153.1359 H   0  0  0  0  0  0  0  0  0  0  0  0
  145.8965  133.3813  153.8652 H   0  0  0  0  0  0  0  0  0  0  0  0
  144.3179  135.5958  160.4736 H   0  0  0  0  0  0  0  0  0  0  0  0
  143.9766  133.9519  159.9632 H   0  0  0  0  0  0  0  0  0  0  0  0
  143.4946  135.3145  158.9437 H   0  0  0  0  0  0  0  0  0  0  0  0
  147.7387  135.4099  152.8311 H   0  0  0  0  0  0  0  0  0  0  0  0
  1  2  1  0  0  0  0
  1 26  1  0  0  0  0
  1 27  1  0  0  0  0
  1 28  1  0  0  0  0
  2 24  1  0  0  0  0
  2  3  2  0  0  0  0
  3  4  1  0  0  0  0
  4  5  1  0  0  0  0
  4 19  1  0  0  0  0
  5  6  1  0  0  0  0
  5 29  1  0  0  0  0
  5 30  1  0  0  0  0
  6  7  1  0  0  0  0
  6  8  1  0  0  0  0
  6 31  1  0  0  0  0
  7 32  1  0  0  0  0
  8  9  1  0  0  0  0
  8 33  1  0  0  0  0
  8 34  1  0  0  0  0
  9 18  1  0  0  0  0
  9 10  1  0  0  0  0
  9 48  1  0  0  0  0
 10 11  1  0  0  0  0
 10 35  1  0  0  0  0
 10 36  1  0  0  0  0
 11 12  1  0  0  0  0
 11 37  1  0  0  0  0
 11 38  1  0  0  0  0
 12 17  2  0  0  0  0
 12 13  1  0  0  0  0
 13 14  2  0  0  0  0
 13 39  1  0  0  0  0
 14 15  1  0  0  0  0
 14 40  1  0  0  0  0
 15 16  2  0  0  0  0
 15 41  1  0  0  0  0
 16 17  1  0  0  0  0
 16 42  1  0  0  0  0
 17 18  1  0  0  0  0
 18 43  1  0  0  0  0
 18 44  1  0  0  0  0
 19 20  2  0  0  0  0
 19 21  1  0  0  0  0
 21 22  1  0  0  0  0
 21 24  2  0  0  0  0
 22 23  3  0  0  0  0
 24 25  1  0  0  0  0
 25 45  1  0  0  0  0
 25 46  1  0  0  0  0
 25 47  1  0  0  0  0
M  CHG  1   9   1
M  END
> <s_m_source_file>
AV-unprocessed.smi

> <i_m_source_file_index>
1870

> <i_lp_mmshare_version>
43012

> <i_f3d_flags>
0

> <s_epik_input>
TiNDYyhjMVtDSDNdKWMoPU8pbihuYzFbQ0gzXSlbQ0gyXVtDQEhdKFtPSF0pW0NIMl1OKFtDSDJdW0NIMl0yKVtDSDJdYyhjMjMpW2NIXVtjSF1bY0hdW2NIXTM=

> <s_epik_cmdline>
J2VwaWtfcHl0aG9uJywgJy1waCcsICc3LjAnLCAnLXRuJywgJzgnLCAnLW1hJywgJzIwMCcsICctbWV0YWxfYmluZGluZycsICctaW1hZScsICc8aW5maWxlLm1hZT4nLCAnLW9tYWUnLCAnPG91dGZpbGUubWFlPic=

> <r_epik_Ionization_Penalty>
0.0122865

> <r_epik_Ionization_Penalty_Charging>
0.0122864

> <r_epik_Ionization_Penalty_Neutral>
1.48087e-07

> <r_epik_State_Penalty>
0.00950248

> <r_epik_Charging_Adjusted_Penalty>
0.0217889

> <i_epik_Tot_Q>
1

> <i_epik_Tot_abs_Q>
1

> <r_epik_Metal_State_Penalty>
0.00950248

> <b_epik_Metal_Only>
0

> <s_lp_Force_Field>
OPLS_2005

> <r_lp_Energy>
38.404

> <b_lp_Chiralities_Consistent>
1

> <s_lp_Variant>
AV-unprocessed.smi:1870-3

> <Gold.Version>
5.8.1

> <Gold.Id.Protein>
6NUR|6NUR_protein|mol2

> <Gold.PLP.Fitness>
46.6559

> <Gold.PLP.PLP>
-30.7305

> <Gold.PLP.part.hbond>
-5.7583

> <Gold.PLP.part.metal>
0.0000

> <Gold.PLP.part.buried>
-4.2219

> <Gold.PLP.part.nonpolar>
-21.5357

> <Gold.PLP.part.repulsive>
0.0000

> <Gold.PLP.ligand.clash>
0.0000

> <Gold.PLP.ligand.torsion>
0.6596

> <Gold.PLP.Chemscore.Hbond>
5.7412

> <Gold.PLP.Chemscore.CHOScore>
0.0000

> <Gold.PLP.Chemscore.Metal>
0.0000

> <Gold.Chemscore.Hbonds>
donor molecule, donor type, donor heavy atom, donor atom, acceptor molecule, acceptor atom, score
      L1  H     7    32       P1  7948  1.00
      L1  H     9    48       P1  7948  2.00
      P1  H  6934  6947       L1    23  1.00

> <Gold.PLP.Chemscore.Internal.Correction>
0.0208

> <Gold.Rescore>
     Score         DG    S(hbond)    S(metal)    S(lipo)     H(rot)  DE(clash)    DE(int)     intcor
     17.15     -19.11       3.19        0.00      72.67       2.16       0.01       1.94       ----

> <Gold.Chemscore.Fitness>
17.1542

> <Gold.Chemscore.DG>
-19.1115

> <Gold.Chemscore.ZeroCoef>
-5.4800

> <Gold.Chemscore.Hbond>
3.1932

> <Gold.Chemscore.Metal>
0.0000

> <Gold.Chemscore.Lipo>
72.6731

> <Gold.Chemscore.Internal_Hbond>
0.0000

> <Gold.Chemscore.DEClash>
0.0127

> <Gold.Chemscore.DEInternal>
1.9446

> <Gold.Chemscore.Rot>
2.1628

> <Gold.Chemscore.Internal.Correction>
   9.000000E+99

> <Gold.Chemscore.Hbonds>
donor molecule, donor type, donor heavy atom, donor atom, acceptor molecule, acceptor atom, score
      L1  H     7    32       P1  7948  0.28
      L1  H     9    48       P1  7948  1.00
      P1  H  6934  6947       L1    23  1.00

> <Gold.Chemscore.Hbond.Weighted>
-10.6654

> <Gold.Chemscore.Metal.Weighted>
-0.0000

> <Gold.Chemscore.Lipo.Weighted>
-8.5027

> <Gold.Chemscore.Internal_Hbond.Weighted>
0.0000

> <Gold.Chemscore.DEClash.Weighted>
0.0127

> <Gold.Chemscore.DEInternal.Weighted>
1.9446

> <Gold.Chemscore.Rot.Weighted>
5.5367

> <Gold.Chemscore.Internal.Correction.Weighted>
   9.000000E+99

> <Gold.Protein.RotatedTorsions>
[ 6907 6896 6895 6894 ] final -154.76 input  -60.11 | X-H torsion
[ 7974 7965 7964 7962 ] final   56.81 input  175.53 | X-H torsion
[ 8008 7997 7996 7995 ] final  -45.28 input   59.86 | X-H torsion
[ 10167 10162 10161 10158 ] final -141.18 input  -65.29 | X-H torsion
[ 10718 10713 10712 10709 ] final -101.16 input   66.30 | X-H torsion
[ 10763 10752 10751 10750 ] final   91.42 input  -60.55 | X-H torsion
[ 11005 11000 10999 10996 ] final  -10.78 input  -57.11 | X-H torsion

> <Gold.Protein.ActiveResidues>
 VAL166  LYS551  ARG553  GLY616  TRP617  ASP618  TYR619  PRO620  LYS621  CYS622 
 ASP623  PHE694  ASN695  SER759  ASP760  ASP761  ALA762  ILE779  LEU786  VAL792 
 PHE793  MET794  SER795  GLU796  ALA797  LYS798  CYS799  TRP800  GLU811  SER814 

> <Gold.Protein.RotatedAtoms>
  151.2624  133.4295  159.2616 H   0  0  0  0  0  0  0  0  0  0  0  0  # atno 6907 bound_to 6896
  151.0519  134.9679  159.8226 H   0  0  0  0  0  0  0  0  0  0  0  0  # atno 6908 bound_to 6896
  152.5384  134.2578  159.8976 H   0  0  0  0  0  0  0  0  0  0  0  0  # atno 6909 bound_to 6896
  145.9359  139.3846  143.0393 H   0  0  0  0  0  0  0  0  0  0  0  0  # atno 7974 bound_to 7965
  154.4000  140.1400  156.3822 H   0  0  0  0  0  0  0  0  0  0  0  0  # atno 8008 bound_to 7997
  155.7993  140.3476  155.5373 H   0  0  0  0  0  0  0  0  0  0  0  0  # atno 8009 bound_to 7997
  155.8500  140.0940  157.1671 H   0  0  0  0  0  0  0  0  0  0  0  0  # atno 8010 bound_to 7997
  139.8210  143.7574  152.2666 H   0  0  0  0  0  0  0  0  0  0  0  0  # atno 10167 bound_to 10162
  156.0186  130.5361  150.6922 H   0  0  0  0  0  0  0  0  0  0  0  0  # atno 10718 bound_to 10713
  153.2080  135.4398  155.0346 H   0  0  0  0  0  0  0  0  0  0  0  0  # atno 10763 bound_to 10752
  154.8184  135.3326  154.7111 H   0  0  0  0  0  0  0  0  0  0  0  0  # atno 10764 bound_to 10752
  153.7551  135.6995  153.4993 H   0  0  0  0  0  0  0  0  0  0  0  0  # atno 10765 bound_to 10752
  140.7483  133.8613  155.9024 H   0  0  0  0  0  0  0  0  0  0  0  0  # atno 11005 bound_to 11000
  145.8365  140.9603  143.0822 LP  0  0  0  0  0  0  0  0  0  0  0  0  # atno 17320 bound_to 7965
  144.6771  140.0229  143.7483 LP  0  0  0  0  0  0  0  0  0  0  0  0  # atno 17321 bound_to 7965
  139.7752  144.7463  151.0166 LP  0  0  0  0  0  0  0  0  0  0  0  0  # atno 17342 bound_to 10162
  140.7813  143.4601  151.0290 LP  0  0  0  0  0  0  0  0  0  0  0  0  # atno 17343 bound_to 10162
  157.4601  131.0882  151.0754 LP  0  0  0  0  0  0  0  0  0  0  0  0  # atno 17370 bound_to 10713
  157.1245  130.6076  149.5513 LP  0  0  0  0  0  0  0  0  0  0  0  0  # atno 17371 bound_to 10713
  140.9774  134.1451  157.4524 LP  0  0  0  0  0  0  0  0  0  0  0  0  # atno 17394 bound_to 11000
  139.8792  134.9999  156.5981 LP  0  0  0  0  0  0  0  0  0  0  0  0  # atno 17395 bound_to 11000

$$$$
