AV-unprocessed.smi:438|AV-procd|sdf|2565|dock2
  -GOLD-   2262022533D 1   1.00000     0.00000
 Structure written by MMmdl.
 48 49  0  0  0  0  0  0  0  0  1 V2000
  147.6541  132.3191  161.0701 C   0  0  0  0  0  0  0  0  0  0  0  0
  147.7620  133.7272  160.5126 C   0  0  0  0  0  0  0  0  0  0  0  0
  147.9838  133.8165  159.1326 N   0  0  0  0  0  0  0  0  0  0  0  0
  148.0865  134.9755  158.5651 C   0  0  0  0  0  0  0  0  0  0  0  0
  148.3558  135.3791  156.8166 S   0  0  0  0  0  0  0  0  0  0  0  0
  150.1684  135.4516  156.7424 C   0  0  0  0  0  0  0  0  0  0  0  0
  150.6589  136.2954  155.5706 C   0  0  0  0  0  0  0  0  0  0  0  0
  151.0129  135.7547  154.5234 O   0  0  0  0  0  0  0  0  0  0  0  0
  150.6814  137.6222  155.7679 N   0  0  0  0  0  0  0  0  0  0  0  0
  151.1659  138.6215  154.8165 C   0  0  2  0  0  0  0  0  0  0  0  0
  152.4272  139.3269  155.3612 C   0  0  0  0  0  0  0  0  0  0  0  0
  152.1105  140.2296  156.5664 C   0  0  0  0  0  0  0  0  0  0  0  0
  151.0138  141.2490  156.2237 C   0  0  0  0  0  0  0  0  0  0  0  0
  149.7483  140.5554  155.6940 C   0  0  0  0  0  0  0  0  0  0  0  0
  150.0594  139.6522  154.4816 C   0  0  2  0  0  0  0  0  0  0  0  0
  148.7846  138.9980  153.9213 C   0  0  0  0  0  0  0  0  0  0  0  0
  147.9850  136.1446  159.3198 N   0  0  0  0  0  0  0  0  0  0  0  0
  147.7755  136.1661  160.6547 C   0  0  0  0  0  0  0  0  0  0  0  0
  147.7013  137.2359  161.2570 O   0  0  0  0  0  0  0  0  0  0  0  0
  147.6549  134.8424  161.2881 C   0  0  0  0  0  0  0  0  0  0  0  0
  147.3901  134.7956  162.7904 C   0  0  0  0  0  0  0  0  0  0  0  0
  145.9749  134.2962  163.1155 C   0  0  0  0  0  0  0  0  0  0  0  0
  145.0201  135.1388  162.5080 O   0  0  0  0  0  0  0  0  0  0  0  0
  148.3366  132.1836  161.9094 H   0  0  0  0  0  0  0  0  0  0  0  0
  147.9049  131.5738  160.3142 H   0  0  0  0  0  0  0  0  0  0  0  0
  146.6378  132.1216  161.4116 H   0  0  0  0  0  0  0  0  0  0  0  0
  150.5692  134.4422  156.6428 H   0  0  0  0  0  0  0  0  0  0  0  0
  150.5501  135.8598  157.6792 H   0  0  0  0  0  0  0  0  0  0  0  0
  150.3659  137.9692  156.6622 H   0  0  0  0  0  0  0  0  0  0  0  0
  151.4342  138.1078  153.8914 H   0  0  0  0  0  0  0  0  0  0  0  0
  153.1880  138.5947  155.6342 H   0  0  0  0  0  0  0  0  0  0  0  0
  152.8667  139.9335  154.5685 H   0  0  0  0  0  0  0  0  0  0  0  0
  151.7926  139.6191  157.4126 H   0  0  0  0  0  0  0  0  0  0  0  0
  153.0133  140.7502  156.8864 H   0  0  0  0  0  0  0  0  0  0  0  0
  150.7705  141.8434  157.1049 H   0  0  0  0  0  0  0  0  0  0  0  0
  151.3872  141.9480  155.4740 H   0  0  0  0  0  0  0  0  0  0  0  0
  149.2948  139.9663  156.4923 H   0  0  0  0  0  0  0  0  0  0  0  0
  149.0119  141.3101  155.4161 H   0  0  0  0  0  0  0  0  0  0  0  0
  150.4518  140.2961  153.6929 H   0  0  0  0  0  0  0  0  0  0  0  0
  148.2845  138.3791  154.6669 H   0  0  0  0  0  0  0  0  0  0  0  0
  149.0138  138.3662  153.0629 H   0  0  0  0  0  0  0  0  0  0  0  0
  148.0718  139.7539  153.5910 H   0  0  0  0  0  0  0  0  0  0  0  0
  148.0749  137.0321  158.8468 H   0  0  0  0  0  0  0  0  0  0  0  0
  147.5388  135.7815  163.2304 H   0  0  0  0  0  0  0  0  0  0  0  0
  148.1328  134.1556  163.2691 H   0  0  0  0  0  0  0  0  0  0  0  0
  145.8325  133.2781  162.7521 H   0  0  0  0  0  0  0  0  0  0  0  0
  145.8036  134.2864  164.1923 H   0  0  0  0  0  0  0  0  0  0  0  0
  144.9791  134.9319  161.5868 H   0  0  0  0  0  0  0  0  0  0  0  0
  1 24  1  0  0  0  0
  1 25  1  0  0  0  0
  1 26  1  0  0  0  0
  1  2  1  0  0  0  0
  2 20  2  0  0  0  0
  2  3  1  0  0  0  0
  3  4  2  0  0  0  0
  4  5  1  0  0  0  0
  4 17  1  0  0  0  0
  5  6  1  0  0  0  0
  6  7  1  0  0  0  0
  6 27  1  0  0  0  0
  6 28  1  0  0  0  0
  7  8  2  0  0  0  0
  7  9  1  0  0  0  0
  9 10  1  0  0  0  0
  9 29  1  0  0  0  0
 10 15  1  0  0  0  0
 10 11  1  0  0  0  0
 10 30  1  0  0  0  0
 11 12  1  0  0  0  0
 11 31  1  0  0  0  0
 11 32  1  0  0  0  0
 12 13  1  0  0  0  0
 12 33  1  0  0  0  0
 12 34  1  0  0  0  0
 13 14  1  0  0  0  0
 13 35  1  0  0  0  0
 13 36  1  0  0  0  0
 14 15  1  0  0  0  0
 14 37  1  0  0  0  0
 14 38  1  0  0  0  0
 15 16  1  0  0  0  0
 15 39  1  0  0  0  0
 16 40  1  0  0  0  0
 16 41  1  0  0  0  0
 16 42  1  0  0  0  0
 17 43  1  0  0  0  0
 17 18  1  0  0  0  0
 18 19  2  0  0  0  0
 18 20  1  0  0  0  0
 20 21  1  0  0  0  0
 21 22  1  0  0  0  0
 21 44  1  0  0  0  0
 21 45  1  0  0  0  0
 22 23  1  0  0  0  0
 22 46  1  0  0  0  0
 22 47  1  0  0  0  0
 23 48  1  0  0  0  0
M  END
> <s_m_source_file>
AV-unprocessed.smi

> <i_m_source_file_index>
438

> <i_lp_mmshare_version>
43012

> <i_f3d_flags>
0

> <s_epik_input>
W09IXVtDSDJdW0NIMl1jMWMoW09IXSluYyhuYzFbQ0gzXSlTW0NIMl1DKD1PKVtOSF1bQ0BASF0yW0NIMl1bQ0gyXVtDSDJdW0NIMl1bQ0BIXTJbQ0gzXQ==

> <s_epik_cmdline>
J2VwaWtfcHl0aG9uJywgJy1waCcsICc3LjAnLCAnLXRuJywgJzgnLCAnLW1hJywgJzIwMCcsICctbWV0YWxfYmluZGluZycsICctaW1hZScsICc8aW5maWxlLm1hZT4nLCAnLW9tYWUnLCAnPG91dGZpbGUubWFlPic=

> <r_lp_tautomer_probability>
0.660323

> <r_epik_Ionization_Penalty>
0.00860626

> <r_epik_Ionization_Penalty_Charging>
0.00860522

> <r_epik_Ionization_Penalty_Neutral>
1.04215e-06

> <r_epik_State_Penalty>
0.156825

> <r_epik_Charging_Adjusted_Penalty>
0.16543

> <i_epik_Tot_Q>
0

> <i_epik_Tot_abs_Q>
0

> <r_epik_Metal_State_Penalty>
0.752038

> <b_epik_Metal_Only>
0

> <s_lp_Force_Field>
OPLS_2005

> <r_lp_Energy>
12.4019

> <b_lp_Chiralities_Consistent>
1

> <s_lp_Variant>
AV-unprocessed.smi:438-3

> <Gold.Version>
5.8.1

> <Gold.Id.Protein>
6NUR|6NUR_protein|mol2

> <Gold.PLP.Fitness>
42.5179

> <Gold.PLP.PLP>
-35.7896

> <Gold.PLP.part.hbond>
-3.0000

> <Gold.PLP.part.metal>
0.0000

> <Gold.PLP.part.buried>
-0.4654

> <Gold.PLP.part.nonpolar>
-33.3647

> <Gold.PLP.part.repulsive>
1.0192

> <Gold.PLP.ligand.clash>
0.0000

> <Gold.PLP.ligand.torsion>
0.9070

> <Gold.PLP.Chemscore.Hbond>
2.8400

> <Gold.PLP.Chemscore.CHOScore>
0.0000

> <Gold.PLP.Chemscore.Metal>
0.0000

> <Gold.Chemscore.Hbonds>
donor molecule, donor type, donor heavy atom, donor atom, acceptor molecule, acceptor atom, score
      P1  H  6931  6943       L1    19  0.94
      P1  H  6934  6947       L1    19  0.83
      P1  H 10752 10763       L1     8  1.00

> <Gold.PLP.Chemscore.Internal.Correction>
0.0222

> <Gold.Rescore>
     Score         DG    S(hbond)    S(metal)    S(lipo)     H(rot)  DE(clash)    DE(int)     intcor
     16.03     -17.75       2.72        0.00      89.88       2.86       0.82       0.90       ----

> <Gold.Chemscore.Fitness>
16.0327

> <Gold.Chemscore.DG>
-17.7516

> <Gold.Chemscore.ZeroCoef>
-5.4800

> <Gold.Chemscore.Hbond>
2.7213

> <Gold.Chemscore.Metal>
0.0000

> <Gold.Chemscore.Lipo>
89.8774

> <Gold.Chemscore.Internal_Hbond>
0.0000

> <Gold.Chemscore.DEClash>
0.8219

> <Gold.Chemscore.DEInternal>
0.8970

> <Gold.Chemscore.Rot>
2.8645

> <Gold.Chemscore.Internal.Correction>
   9.000000E+99

> <Gold.Chemscore.Hbonds>
donor molecule, donor type, donor heavy atom, donor atom, acceptor molecule, acceptor atom, score
      P1  H  6931  6943       L1    19  0.91
      P1  H  6934  6947       L1    19  0.81
      P1  H 10752 10763       L1     8  0.82

> <Gold.Chemscore.Hbond.Weighted>
-9.0890

> <Gold.Chemscore.Metal.Weighted>
-0.0000

> <Gold.Chemscore.Lipo.Weighted>
-10.5157

> <Gold.Chemscore.Internal_Hbond.Weighted>
0.0000

> <Gold.Chemscore.DEClash.Weighted>
0.8219

> <Gold.Chemscore.DEInternal.Weighted>
0.8970

> <Gold.Chemscore.Rot.Weighted>
7.3331

> <Gold.Chemscore.Internal.Correction.Weighted>
   9.000000E+99

> <Gold.Protein.RotatedTorsions>
[ 6907 6896 6895 6894 ] final  126.58 input  -60.11 | X-H torsion
[ 7974 7965 7964 7962 ] final  106.53 input  175.53 | X-H torsion
[ 8008 7997 7996 7995 ] final    1.80 input   59.86 | X-H torsion
[ 10167 10162 10161 10158 ] final   55.56 input  -65.29 | X-H torsion
[ 10718 10713 10712 10709 ] final -150.97 input   66.30 | X-H torsion
[ 10763 10752 10751 10750 ] final   49.60 input  -60.55 | X-H torsion
[ 11005 11000 10999 10996 ] final -146.60 input  -57.11 | X-H torsion

> <Gold.Protein.ActiveResidues>
 VAL166  LYS551  ARG553  GLY616  TRP617  ASP618  TYR619  PRO620  LYS621  CYS622 
 ASP623  PHE694  ASN695  SER759  ASP760  ASP761  ALA762  ILE779  LEU786  VAL792 
 PHE793  MET794  SER795  GLU796  ALA797  LYS798  CYS799  TRP800  GLU811  SER814 

> <Gold.Protein.RotatedAtoms>
  152.3890  133.6652  159.6221 H   0  0  0  0  0  0  0  0  0  0  0  0  # atno 6907 bound_to 6896
  150.7802  133.8986  159.3343 H   0  0  0  0  0  0  0  0  0  0  0  0  # atno 6908 bound_to 6896
  151.6777  135.0968  160.0261 H   0  0  0  0  0  0  0  0  0  0  0  0  # atno 6909 bound_to 6896
  145.3054  139.2556  143.3791 H   0  0  0  0  0  0  0  0  0  0  0  0  # atno 7974 bound_to 7965
  154.6840  140.2639  155.6880 H   0  0  0  0  0  0  0  0  0  0  0  0  # atno 8008 bound_to 7997
  156.2707  140.2804  156.1317 H   0  0  0  0  0  0  0  0  0  0  0  0  # atno 8009 bound_to 7997
  155.0991  140.0374  157.2682 H   0  0  0  0  0  0  0  0  0  0  0  0  # atno 8010 bound_to 7997
  140.2181  144.3817  150.6461 H   0  0  0  0  0  0  0  0  0  0  0  0  # atno 10167 bound_to 10162
  156.4531  130.8177  151.2408 H   0  0  0  0  0  0  0  0  0  0  0  0  # atno 10718 bound_to 10713
  152.9786  135.5906  154.4115 H   0  0  0  0  0  0  0  0  0  0  0  0  # atno 10763 bound_to 10752
  154.3750  135.2767  155.2246 H   0  0  0  0  0  0  0  0  0  0  0  0  # atno 10764 bound_to 10752
  154.4185  135.6064  153.6050 H   0  0  0  0  0  0  0  0  0  0  0  0  # atno 10765 bound_to 10752
  140.7803  134.3087  157.5047 H   0  0  0  0  0  0  0  0  0  0  0  0  # atno 11005 bound_to 11000
  146.3137  140.3578  142.8662 LP  0  0  0  0  0  0  0  0  0  0  0  0  # atno 17320 bound_to 7965
  144.9059  140.7699  143.5838 LP  0  0  0  0  0  0  0  0  0  0  0  0  # atno 17321 bound_to 7965
  140.6275  143.2183  151.6566 LP  0  0  0  0  0  0  0  0  0  0  0  0  # atno 17342 bound_to 10162
  139.5154  144.3379  152.0767 LP  0  0  0  0  0  0  0  0  0  0  0  0  # atno 17343 bound_to 10162
  157.7502  131.0131  150.3412 LP  0  0  0  0  0  0  0  0  0  0  0  0  # atno 17370 bound_to 10713
  156.3795  130.3878  149.7113 LP  0  0  0  0  0  0  0  0  0  0  0  0  # atno 17371 bound_to 10713
  139.8743  134.9314  156.3527 LP  0  0  0  0  0  0  0  0  0  0  0  0  # atno 17394 bound_to 11000
  140.9489  133.7464  156.0245 LP  0  0  0  0  0  0  0  0  0  0  0  0  # atno 17395 bound_to 11000

$$$$
