AV-unprocessed.smi:936|AV-procd|sdf|4208|dock1
  -GOLD-   22720 2113D 1   1.00000     0.00000
 Structure written by MMmdl.
 40 41  0  0  0  0  0  0  0  0  1 V2000
  152.6039  143.8022  161.9219 C   0  0  0  0  0  0  0  0  0  0  0  0
  152.4643  144.1412  160.4305 C   0  0  0  0  0  0  0  0  0  0  0  0
  151.3782  145.1893  160.1496 C   0  0  0  0  0  0  0  0  0  0  0  0
  152.2927  142.9163  159.5884 C   0  0  0  0  0  0  0  0  0  0  0  0
  151.4323  142.8315  158.5688 N   0  0  0  0  0  0  0  0  0  0  0  0
  151.4666  141.5860  157.9345 C   0  0  0  0  0  0  0  0  0  0  0  0
  150.5666  141.3148  156.7676 C   0  0  0  0  0  0  0  0  0  0  0  0
  150.4163  139.8105  156.4867 C   0  0  0  0  0  0  0  0  0  0  0  0
  149.0234  139.4454  156.2552 N   0  0  0  0  0  0  0  0  0  0  0  0
  148.2360  139.9627  155.2964 C   0  0  0  0  0  0  0  0  0  0  0  0
  148.6347  140.8344  154.5225 O   0  0  0  0  0  0  0  0  0  0  0  0
  146.9719  139.4684  155.2696 N   0  0  0  0  0  0  0  0  0  0  0  0
  146.4884  138.2930  156.0130 C   0  0  0  0  0  0  0  0  0  0  0  0
  146.5351  137.0609  155.0939 C   0  0  0  0  0  0  0  0  0  0  0  0
  145.4266  137.2719  153.6657 S   0  0  0  0  0  0  0  0  0  0  0  0
  145.9624  138.9185  153.1044 C   0  0  0  0  0  0  0  0  0  0  0  0
  145.9925  139.9181  154.2730 C   0  0  0  0  0  0  0  0  0  0  0  0
  152.3731  140.7197  158.4923 C   0  0  0  0  0  0  0  0  0  0  0  0
  153.2165  141.4383  159.8365 S   0  0  0  0  0  0  0  0  0  0  0  0
  153.4344  143.1166  162.0923 H   0  0  0  0  0  0  0  0  0  0  0  0
  151.6990  143.3317  162.3078 H   0  0  0  0  0  0  0  0  0  0  0  0
  152.7893  144.6992  162.5130 H   0  0  0  0  0  0  0  0  0  0  0  0
  153.4108  144.5912  160.1286 H   0  0  0  0  0  0  0  0  0  0  0  0
  151.3660  145.4672  159.0952 H   0  0  0  0  0  0  0  0  0  0  0  0
  151.5488  146.0973  160.7286 H   0  0  0  0  0  0  0  0  0  0  0  0
  150.3879  144.8122  160.4064 H   0  0  0  0  0  0  0  0  0  0  0  0
  149.5852  141.7533  156.9526 H   0  0  0  0  0  0  0  0  0  0  0  0
  150.9523  141.8143  155.8778 H   0  0  0  0  0  0  0  0  0  0  0  0
  150.9887  139.5389  155.5994 H   0  0  0  0  0  0  0  0  0  0  0  0
  150.8255  139.2243  157.3113 H   0  0  0  0  0  0  0  0  0  0  0  0
  148.6280  138.7443  156.8645 H   0  0  0  0  0  0  0  0  0  0  0  0
  147.0550  138.0987  156.9235 H   0  0  0  0  0  0  0  0  0  0  0  0
  145.4657  138.4639  156.3520 H   0  0  0  0  0  0  0  0  0  0  0  0
  147.5510  136.8896  154.7355 H   0  0  0  0  0  0  0  0  0  0  0  0
  146.2335  136.1669  155.6399 H   0  0  0  0  0  0  0  0  0  0  0  0
  146.9502  138.8351  152.6497 H   0  0  0  0  0  0  0  0  0  0  0  0
  145.2806  139.2627  152.3267 H   0  0  0  0  0  0  0  0  0  0  0  0
  145.0035  139.9985  154.7261 H   0  0  0  0  0  0  0  0  0  0  0  0
  146.2208  140.9181  153.9013 H   0  0  0  0  0  0  0  0  0  0  0  0
  152.5951  139.7055  158.1945 H   0  0  0  0  0  0  0  0  0  0  0  0
  1  2  1  0  0  0  0
  1 20  1  0  0  0  0
  1 21  1  0  0  0  0
  1 22  1  0  0  0  0
  2  3  1  0  0  0  0
  2  4  1  0  0  0  0
  2 23  1  0  0  0  0
  3 24  1  0  0  0  0
  3 25  1  0  0  0  0
  3 26  1  0  0  0  0
  4 19  1  0  0  0  0
  4  5  2  0  0  0  0
  5  6  1  0  0  0  0
  6  7  1  0  0  0  0
  6 18  2  0  0  0  0
  7  8  1  0  0  0  0
  7 27  1  0  0  0  0
  7 28  1  0  0  0  0
  8  9  1  0  0  0  0
  8 29  1  0  0  0  0
  8 30  1  0  0  0  0
  9 10  1  0  0  0  0
  9 31  1  0  0  0  0
 10 11  2  0  0  0  0
 10 12  1  0  0  0  0
 12 17  1  0  0  0  0
 12 13  1  0  0  0  0
 13 14  1  0  0  0  0
 13 32  1  0  0  0  0
 13 33  1  0  0  0  0
 14 15  1  0  0  0  0
 14 34  1  0  0  0  0
 14 35  1  0  0  0  0
 15 16  1  0  0  0  0
 16 17  1  0  0  0  0
 16 36  1  0  0  0  0
 16 37  1  0  0  0  0
 17 38  1  0  0  0  0
 17 39  1  0  0  0  0
 18 19  1  0  0  0  0
 18 40  1  0  0  0  0
M  END
> <s_m_source_file>
AV-unprocessed.smi

> <i_m_source_file_index>
936

> <i_lp_mmshare_version>
43012

> <i_f3d_flags>
0

> <s_epik_input>
W0NIM11bQ0hdKFtDSDNdKWMxbmMoW2NIXXMxKVtDSDJdW0NIMl1bTkhdQyg9TylOMltDSDJdW0NIMl1TW0NIMl1bQ0gyXTI=

> <s_epik_cmdline>
J2VwaWtfcHl0aG9uJywgJy1waCcsICc3LjAnLCAnLXRuJywgJzgnLCAnLW1hJywgJzIwMCcsICctbWV0YWxfYmluZGluZycsICctaW1hZScsICc8aW5maWxlLm1hZT4nLCAnLW9tYWUnLCAnPG91dGZpbGUubWFlPic=

> <r_epik_Ionization_Penalty>
0.00156596

> <r_epik_Ionization_Penalty_Charging>
0

> <r_epik_Ionization_Penalty_Neutral>
0.00156596

> <r_epik_State_Penalty>
0.00101864

> <r_epik_Charging_Adjusted_Penalty>
0.00101864

> <i_epik_Tot_Q>
0

> <i_epik_Tot_abs_Q>
0

> <r_epik_Metal_State_Penalty>
-0

> <b_epik_Metal_Only>
0

> <s_lp_Force_Field>
OPLS_2005

> <r_lp_Energy>
11.6004

> <b_lp_Chiralities_Consistent>
1

> <s_lp_Variant>
AV-unprocessed.smi:936-1

> <Gold.Version>
5.8.1

> <Gold.Id.Protein>
6NUR|6NUR_protein|mol2

> <Gold.PLP.Fitness>
40.4280

> <Gold.PLP.PLP>
-38.7302

> <Gold.PLP.part.hbond>
-2.0000

> <Gold.PLP.part.metal>
0.0000

> <Gold.PLP.part.buried>
-0.7992

> <Gold.PLP.part.nonpolar>
-38.1995

> <Gold.PLP.part.repulsive>
1.7477

> <Gold.PLP.ligand.clash>
0.0000

> <Gold.PLP.ligand.torsion>
0.9389

> <Gold.PLP.Chemscore.Hbond>
1.1308

> <Gold.PLP.Chemscore.CHOScore>
0.0000

> <Gold.PLP.Chemscore.Metal>
0.0000

> <Gold.PLP.Chemscore.Internal.Correction>
0.1834

> <Gold.Rescore>
     Score         DG    S(hbond)    S(metal)    S(lipo)     H(rot)  DE(clash)    DE(int)     intcor
     16.23     -19.10       1.22        0.00     112.38       1.41       1.94       0.93       ----

> <Gold.Chemscore.Fitness>
16.2345

> <Gold.Chemscore.DG>
-19.1036

> <Gold.Chemscore.ZeroCoef>
-5.4800

> <Gold.Chemscore.Hbond>
1.2204

> <Gold.Chemscore.Metal>
0.0000

> <Gold.Chemscore.Lipo>
112.3841

> <Gold.Chemscore.Internal_Hbond>
0.0000

> <Gold.Chemscore.DEClash>
1.9406

> <Gold.Chemscore.DEInternal>
0.9285

> <Gold.Chemscore.Rot>
1.4068

> <Gold.Chemscore.Internal.Correction>
   9.000000E+99

> <Gold.Chemscore.Hbond.Weighted>
-4.0760

> <Gold.Chemscore.Metal.Weighted>
-0.0000

> <Gold.Chemscore.Lipo.Weighted>
-13.1489

> <Gold.Chemscore.Internal_Hbond.Weighted>
0.0000

> <Gold.Chemscore.DEClash.Weighted>
1.9406

> <Gold.Chemscore.DEInternal.Weighted>
0.9285

> <Gold.Chemscore.Rot.Weighted>
3.6014

> <Gold.Chemscore.Internal.Correction.Weighted>
   9.000000E+99

> <Gold.Protein.RotatedTorsions>
[ 6907 6896 6895 6894 ] final   91.20 input  -60.11 | X-H torsion
[ 7974 7965 7964 7962 ] final   30.17 input  175.53 | X-H torsion
[ 8008 7997 7996 7995 ] final -116.71 input   59.86 | X-H torsion
[ 10167 10162 10161 10158 ] final   29.80 input  -65.29 | X-H torsion
[ 10718 10713 10712 10709 ] final -108.46 input   66.30 | X-H torsion
[ 10763 10752 10751 10750 ] final   60.27 input  -60.55 | X-H torsion
[ 11005 11000 10999 10996 ] final -139.91 input  -57.11 | X-H torsion

> <Gold.Protein.ActiveResidues>
 VAL166  LYS551  ARG553  GLY616  TRP617  ASP618  TYR619  PRO620  LYS621  CYS622 
 ASP623  PHE694  ASN695  SER759  ASP760  ASP761  ALA762  ILE779  LEU786  VAL792 
 PHE793  MET794  SER795  GLU796  ALA797  LYS798  CYS799  TRP800  GLU811  SER814 

> <Gold.Protein.RotatedAtoms>
  152.5449  134.1694  159.8590 H   0  0  0  0  0  0  0  0  0  0  0  0  # atno 6907 bound_to 6896
  151.1705  133.4780  159.2601 H   0  0  0  0  0  0  0  0  0  0  0  0  # atno 6908 bound_to 6896
  151.1280  135.0126  159.8624 H   0  0  0  0  0  0  0  0  0  0  0  0  # atno 6909 bound_to 6896
  146.1628  139.6824  142.9022 H   0  0  0  0  0  0  0  0  0  0  0  0  # atno 7974 bound_to 7965
  155.0721  140.0393  157.2612 H   0  0  0  0  0  0  0  0  0  0  0  0  # atno 8008 bound_to 7997
  154.6974  140.2666  155.6728 H   0  0  0  0  0  0  0  0  0  0  0  0  # atno 8009 bound_to 7997
  156.2749  140.2747  156.1573 H   0  0  0  0  0  0  0  0  0  0  0  0  # atno 8010 bound_to 7997
  140.4733  144.0728  150.6243 H   0  0  0  0  0  0  0  0  0  0  0  0  # atno 10167 bound_to 10162
  156.0487  130.5714  150.7964 H   0  0  0  0  0  0  0  0  0  0  0  0  # atno 10718 bound_to 10713
  152.9916  135.5542  154.5846 H   0  0  0  0  0  0  0  0  0  0  0  0  # atno 10763 bound_to 10752
  154.5220  135.2808  155.1256 H   0  0  0  0  0  0  0  0  0  0  0  0  # atno 10764 bound_to 10752
  154.2605  135.6382  153.5326 H   0  0  0  0  0  0  0  0  0  0  0  0  # atno 10765 bound_to 10752
  140.8474  134.2328  157.4778 H   0  0  0  0  0  0  0  0  0  0  0  0  # atno 11005 bound_to 11000
  145.4545  141.0430  143.2786 LP  0  0  0  0  0  0  0  0  0  0  0  0  # atno 17320 bound_to 7965
  144.8050  139.6068  143.7055 LP  0  0  0  0  0  0  0  0  0  0  0  0  # atno 17321 bound_to 7965
  140.3949  143.2733  152.0016 LP  0  0  0  0  0  0  0  0  0  0  0  0  # atno 17342 bound_to 10162
  139.4822  144.6046  151.7544 LP  0  0  0  0  0  0  0  0  0  0  0  0  # atno 17343 bound_to 10162
  157.5390  131.0940  150.9853 LP  0  0  0  0  0  0  0  0  0  0  0  0  # atno 17370 bound_to 10713
  157.0140  130.5648  149.5324 LP  0  0  0  0  0  0  0  0  0  0  0  0  # atno 17371 bound_to 10713
  139.8703  134.9666  156.4568 LP  0  0  0  0  0  0  0  0  0  0  0  0  # atno 17394 bound_to 11000
  140.8828  133.7905  155.9485 LP  0  0  0  0  0  0  0  0  0  0  0  0  # atno 17395 bound_to 11000

$$$$
