AV-unprocessed.smi:1202|AV-procd|sdf|5032|dock3
  -GOLD-   22720 4 53D 1   1.00000     0.00000
 Structure written by MMmdl.
 44 45  0  0  0  0  0  0  0  0  3 V2000
  150.2132  133.1545  156.7942 C   0  0  0  0  0  0  0  0  0  0  0  0
  151.0346  134.3032  157.1579 N   0  5  0  0  0  0  0  0  0  0  0  0
  151.5619  135.1671  156.2468 C   0  0  0  0  0  0  0  0  0  0  0  0
  152.4956  135.9696  156.3447 O   0  0  0  0  0  0  0  0  0  0  0  0
  150.8268  135.0709  154.9036 C   0  0  0  0  0  0  0  0  0  0  0  0
  150.1524  136.3521  154.5687 N   0  3  2  0  0  0  0  0  0  0  0  0
  151.0807  137.5138  154.5286 C   0  0  0  0  0  0  0  0  0  0  0  0
  150.3607  138.7876  154.0490 C   0  0  0  0  0  0  0  0  0  0  0  0
  149.1233  139.1080  154.9054 C   0  0  2  0  0  0  0  0  0  0  0  0
  149.5287  139.5639  156.2343 N   0  0  0  0  0  0  0  0  0  0  0  0
  150.5020  140.4507  156.4920 C   0  0  0  0  0  0  0  0  0  0  0  0
  151.1849  140.9783  155.6132 O   0  0  0  0  0  0  0  0  0  0  0  0
  150.7438  140.7702  157.9740 C   0  0  0  0  0  0  0  0  0  0  0  0
  151.3164  142.1090  158.1929 N   0  0  0  0  0  0  0  0  0  0  0  0
  150.6024  143.2066  157.6722 C   0  0  0  0  0  0  0  0  0  0  0  0
  151.0346  144.4690  157.8188 C   0  0  0  0  0  0  0  0  0  0  0  0
  152.2691  144.6889  158.5347 C   0  0  0  0  0  0  0  0  0  0  0  0
  152.9596  143.6462  159.0376 C   0  0  0  0  0  0  0  0  0  0  0  0
  152.4908  142.2647  158.8794 C   0  0  0  0  0  0  0  0  0  0  0  0
  153.1144  141.3056  159.3359 O   0  0  0  0  0  0  0  0  0  0  0  0
  148.2118  137.8668  154.9776 C   0  0  0  0  0  0  0  0  0  0  0  0
  148.9787  136.6149  155.4389 C   0  0  0  0  0  0  0  0  0  0  0  0
  149.8664  132.6107  157.6727 H   0  0  0  0  0  0  0  0  0  0  0  0
  150.7535  132.4355  156.1780 H   0  0  0  0  0  0  0  0  0  0  0  0
  149.3206  133.4409  156.2373 H   0  0  0  0  0  0  0  0  0  0  0  0
  151.5633  134.8190  154.1387 H   0  0  0  0  0  0  0  0  0  0  0  0
  150.1024  134.2550  154.9179 H   0  0  0  0  0  0  0  0  0  0  0  0
  151.5100  137.6705  155.5193 H   0  0  0  0  0  0  0  0  0  0  0  0
  151.9141  137.3070  153.8569 H   0  0  0  0  0  0  0  0  0  0  0  0
  151.0514  139.6319  154.0502 H   0  0  0  0  0  0  0  0  0  0  0  0
  150.0527  138.6506  153.0115 H   0  0  0  0  0  0  0  0  0  0  0  0
  148.5767  139.9204  154.4226 H   0  0  0  0  0  0  0  0  0  0  0  0
  149.0292  139.1748  157.0209 H   0  0  0  0  0  0  0  0  0  0  0  0
  149.8076  140.6720  158.5272 H   0  0  0  0  0  0  0  0  0  0  0  0
  151.3986  139.9995  158.3831 H   0  0  0  0  0  0  0  0  0  0  0  0
  149.6863  142.9580  157.1564 H   0  0  0  0  0  0  0  0  0  0  0  0
  150.4723  145.2982  157.4153 H   0  0  0  0  0  0  0  0  0  0  0  0
  152.6394  145.6945  158.6694 H   0  0  0  0  0  0  0  0  0  0  0  0
  153.8801  143.8303  159.5717 H   0  0  0  0  0  0  0  0  0  0  0  0
  147.3625  138.0489  155.6372 H   0  0  0  0  0  0  0  0  0  0  0  0
  147.7882  137.6782  153.9901 H   0  0  0  0  0  0  0  0  0  0  0  0
  148.3056  135.7572  155.4148 H   0  0  0  0  0  0  0  0  0  0  0  0
  149.3078  136.7291  156.4730 H   0  0  0  0  0  0  0  0  0  0  0  0
  149.7941  136.2265  153.6318 H   0  0  0  0  0  0  0  0  0  0  0  0
  1  2  1  0  0  0  0
  1 23  1  0  0  0  0
  1 24  1  0  0  0  0
  1 25  1  0  0  0  0
  2  3  1  0  0  0  0
  3  4  2  0  0  0  0
  3  5  1  0  0  0  0
  5  6  1  0  0  0  0
  5 26  1  0  0  0  0
  5 27  1  0  0  0  0
  6 22  1  0  0  0  0
  6  7  1  0  0  0  0
  6 44  1  0  0  0  0
  7  8  1  0  0  0  0
  7 28  1  0  0  0  0
  7 29  1  0  0  0  0
  8  9  1  0  0  0  0
  8 30  1  0  0  0  0
  8 31  1  0  0  0  0
  9 10  1  0  0  0  0
  9 21  1  0  0  0  0
  9 32  1  0  0  0  0
 10 11  1  0  0  0  0
 10 33  1  0  0  0  0
 11 12  2  0  0  0  0
 11 13  1  0  0  0  0
 13 14  1  0  0  0  0
 13 34  1  0  0  0  0
 13 35  1  0  0  0  0
 14 19  1  0  0  0  0
 14 15  1  0  0  0  0
 15 16  2  0  0  0  0
 15 36  1  0  0  0  0
 16 17  1  0  0  0  0
 16 37  1  0  0  0  0
 17 18  2  0  0  0  0
 17 38  1  0  0  0  0
 18 19  1  0  0  0  0
 18 39  1  0  0  0  0
 19 20  2  0  0  0  0
 21 22  1  0  0  0  0
 21 40  1  0  0  0  0
 21 41  1  0  0  0  0
 22 42  1  0  0  0  0
 22 43  1  0  0  0  0
M  CHG  1   2  -1
M  CHG  1   6   1
M  END
> <s_m_source_file>
AV-unprocessed.smi

> <i_m_source_file_index>
1202

> <i_lp_mmshare_version>
43012

> <i_f3d_flags>
0

> <s_epik_input>
W0NIM11bTkhdQyg9TylbQ0gyXU4xW0NIMl1bQ0gyXVtDSF0oW0NIMl1bQ0gyXTEpW05IXUMoPU8pW0NIMl1uMltjSF1bY0hdW2NIXVtjSF1jMj1P

> <s_epik_cmdline>
J2VwaWtfcHl0aG9uJywgJy1waCcsICc3LjAnLCAnLXRuJywgJzgnLCAnLW1hJywgJzIwMCcsICctbWV0YWxfYmluZGluZycsICctaW1hZScsICc8aW5maWxlLm1hZT4nLCAnLW9tYWUnLCAnPG91dGZpbGUubWFlPic=

> <r_lp_tautomer_probability>
1

> <r_epik_Ionization_Penalty>
6.12124

> <r_epik_Ionization_Penalty_Charging>
6.12124

> <r_epik_Ionization_Penalty_Neutral>
4.50226e-08

> <r_epik_State_Penalty>
7.08052

> <r_epik_Charging_Adjusted_Penalty>
13.2018

> <i_epik_Tot_Q>
0

> <i_epik_Tot_abs_Q>
2

> <r_epik_Metal_State_Penalty>
3.01282

> <b_epik_Metal_Only>
1

> <s_lp_Force_Field>
OPLS_2005

> <r_lp_Energy>
20.2211

> <b_lp_Chiralities_Consistent>
1

> <s_lp_Variant>
AV-unprocessed.smi:1202-5

> <Gold.Version>
5.8.1

> <Gold.Id.Protein>
6NUR|6NUR_protein|mol2

> <Gold.PLP.Fitness>
56.7182

> <Gold.PLP.PLP>
-39.9764

> <Gold.PLP.part.hbond>
-4.0000

> <Gold.PLP.part.metal>
0.0000

> <Gold.PLP.part.buried>
-4.8034

> <Gold.PLP.part.nonpolar>
-32.3457

> <Gold.PLP.part.repulsive>
0.0858

> <Gold.PLP.ligand.clash>
0.0000

> <Gold.PLP.ligand.torsion>
0.6745

> <Gold.PLP.Chemscore.Hbond>
5.0646

> <Gold.PLP.Chemscore.CHOScore>
0.9347

> <Gold.PLP.Chemscore.Metal>
0.0000

> <Gold.Chemscore.Hbonds>
donor molecule, donor type, donor heavy atom, donor atom, acceptor molecule, acceptor atom, score
      L1  H     6    44       P1  7948  2.00
      P1  H  6896  6907       L1     2  0.31
      P1  H  7989  7998       L1    12  0.46
      P1  H 10752 10765       L1     4  0.66
      L1  C    15    36       P1  8028  0.67

> <Gold.PLP.Chemscore.Internal.Correction>
0.0928

> <Gold.Rescore>
     Score         DG    S(hbond)    S(metal)    S(lipo)     H(rot)  DE(clash)    DE(int)     intcor
     17.07     -20.27       3.15        0.00      83.43       2.15       0.06       3.14       ----

> <Gold.Chemscore.Fitness>
17.0656

> <Gold.Chemscore.DG>
-20.2711

> <Gold.Chemscore.ZeroCoef>
-5.4800

> <Gold.Chemscore.Hbond>
3.1547

> <Gold.Chemscore.Metal>
0.0000

> <Gold.Chemscore.Lipo>
83.4281

> <Gold.Chemscore.Internal_Hbond>
0.0000

> <Gold.Chemscore.DEClash>
0.0636

> <Gold.Chemscore.DEInternal>
3.1419

> <Gold.Chemscore.Rot>
2.1510

> <Gold.Chemscore.Internal.Correction>
   9.000000E+99

> <Gold.Chemscore.Hbonds>
donor molecule, donor type, donor heavy atom, donor atom, acceptor molecule, acceptor atom, score
      L1  H     6    44       P1  7948  0.25
      P1  H  6896  6907       L1     2  0.01
      P1  H  7989  7998       L1    12  0.45
      P1  H 10752 10765       L1     4  0.07

> <Gold.Chemscore.Hbond.Weighted>
-10.5366

> <Gold.Chemscore.Metal.Weighted>
-0.0000

> <Gold.Chemscore.Lipo.Weighted>
-9.7611

> <Gold.Chemscore.Internal_Hbond.Weighted>
0.0000

> <Gold.Chemscore.DEClash.Weighted>
0.0636

> <Gold.Chemscore.DEInternal.Weighted>
3.1419

> <Gold.Chemscore.Rot.Weighted>
5.5065

> <Gold.Chemscore.Internal.Correction.Weighted>
   9.000000E+99

> <Gold.Protein.RotatedTorsions>
[ 6907 6896 6895 6894 ] final -121.08 input  -60.11 | X-H torsion
[ 7974 7965 7964 7962 ] final   93.83 input  175.53 | X-H torsion
[ 8008 7997 7996 7995 ] final -177.97 input   59.86 | X-H torsion
[ 10167 10162 10161 10158 ] final  -84.26 input  -65.29 | X-H torsion
[ 10718 10713 10712 10709 ] final  160.00 input   66.30 | X-H torsion
[ 10763 10752 10751 10750 ] final -146.53 input  -60.55 | X-H torsion
[ 11005 11000 10999 10996 ] final  118.51 input  -57.11 | X-H torsion

> <Gold.Protein.ActiveResidues>
 VAL166  LYS551  ARG553  GLY616  TRP617  ASP618  TYR619  PRO620  LYS621  CYS622 
 ASP623  PHE694  ASN695  SER759  ASP760  ASP761  ALA762  ILE779  LEU786  VAL792 
 PHE793  MET794  SER795  GLU796  ALA797  LYS798  CYS799  TRP800  GLU811  SER814 

> <Gold.Protein.RotatedAtoms>
  150.8451  133.7875  159.3046 H   0  0  0  0  0  0  0  0  0  0  0  0  # atno 6907 bound_to 6896
  151.5564  135.1065  159.9972 H   0  0  0  0  0  0  0  0  0  0  0  0  # atno 6908 bound_to 6896
  152.4506  133.7579  159.6787 H   0  0  0  0  0  0  0  0  0  0  0  0  # atno 6909 bound_to 6896
  145.4737  139.2281  143.2921 H   0  0  0  0  0  0  0  0  0  0  0  0  # atno 7974 bound_to 7965
  156.0133  140.1245  157.0431 H   0  0  0  0  0  0  0  0  0  0  0  0  # atno 8008 bound_to 7997
  154.4284  140.1083  156.5930 H   0  0  0  0  0  0  0  0  0  0  0  0  # atno 8009 bound_to 7997
  155.6048  140.3471  155.4607 H   0  0  0  0  0  0  0  0  0  0  0  0  # atno 8010 bound_to 7997
  140.4149  143.2608  151.8968 H   0  0  0  0  0  0  0  0  0  0  0  0  # atno 10167 bound_to 10162
  157.1565  131.0577  151.2254 H   0  0  0  0  0  0  0  0  0  0  0  0  # atno 10718 bound_to 10713
  154.8331  135.3384  154.6676 H   0  0  0  0  0  0  0  0  0  0  0  0  # atno 10763 bound_to 10752
  153.7294  135.6953  153.4997 H   0  0  0  0  0  0  0  0  0  0  0  0  # atno 10764 bound_to 10752
  153.2323  135.4412  155.0561 H   0  0  0  0  0  0  0  0  0  0  0  0  # atno 10765 bound_to 10752
  139.9112  134.9621  156.7514 H   0  0  0  0  0  0  0  0  0  0  0  0  # atno 11005 bound_to 11000
  146.2382  140.5517  142.8945 LP  0  0  0  0  0  0  0  0  0  0  0  0  # atno 17320 bound_to 7965
  144.7930  140.6069  143.6529 LP  0  0  0  0  0  0  0  0  0  0  0  0  # atno 17321 bound_to 7965
  139.4782  144.5498  151.8402 LP  0  0  0  0  0  0  0  0  0  0  0  0  # atno 17342 bound_to 10162
  140.4598  144.1739  150.5905 LP  0  0  0  0  0  0  0  0  0  0  0  0  # atno 17343 bound_to 10162
  157.4172  130.7418  149.6885 LP  0  0  0  0  0  0  0  0  0  0  0  0  # atno 17370 bound_to 10713
  155.9761  130.4080  150.3801 LP  0  0  0  0  0  0  0  0  0  0  0  0  # atno 17371 bound_to 10713
  140.6771  133.9508  155.7889 LP  0  0  0  0  0  0  0  0  0  0  0  0  # atno 17394 bound_to 11000
  141.0537  134.0448  157.3751 LP  0  0  0  0  0  0  0  0  0  0  0  0  # atno 17395 bound_to 11000

$$$$
