AV-unprocessed.smi:1830|AV-procd|sdf|7439|dock2
  -GOLD-   22720 9123D 1   1.00000     0.00000
 Structure written by MMmdl.
 53 56  0  0  0  0  0  0  0  0  2 V2000
  152.2815  139.1325  157.9609 O   0  0  0  0  0  0  0  0  0  0  0  0
  152.0631  140.3078  157.6675 C   0  0  0  0  0  0  0  0  0  0  0  0
  151.4515  140.6880  156.5371 N   0  0  0  0  0  0  0  0  0  0  0  0
  150.9489  139.7833  155.5082 C   0  0  0  0  0  0  0  0  0  0  0  0
  149.4891  140.0963  155.1319 C   0  0  1  0  0  0  0  0  0  0  0  0
  148.6755  140.5852  156.3541 C   0  0  0  0  0  0  0  0  0  0  0  0
  147.3280  140.9669  155.8928 N   0  3  1  0  0  0  0  0  0  0  0  0
  146.3563  141.4484  156.8896 C   0  0  0  0  0  0  0  0  0  0  0  0
  145.3547  142.3003  156.0834 C   0  0  0  0  0  0  0  0  0  0  0  0
  145.9302  142.3851  154.6576 C   0  0  0  0  0  0  0  0  0  0  0  0
  147.3922  141.9980  154.8551 C   0  0  2  0  0  0  0  0  0  0  0  0
  148.1681  141.4479  153.6523 C   0  0  0  0  0  0  0  0  0  0  0  0
  149.4751  141.1014  154.1113 O   0  0  0  0  0  0  0  0  0  0  0  0
  152.3773  141.3683  158.4294 N   0  0  0  0  0  0  0  0  0  0  0  0
  152.9252  141.3691  159.7428 C   0  0  0  0  0  0  0  0  0  0  0  0
  153.5561  140.2212  160.2820 C   0  0  0  0  0  0  0  0  0  0  0  0
  154.1390  140.2900  161.5591 C   0  0  0  0  0  0  0  0  0  0  0  0
  154.0862  141.5128  162.2483 C   0  0  0  0  0  0  0  0  0  0  0  0
  153.5035  142.6183  161.7429 N   0  0  0  0  0  0  0  0  0  0  0  0
  152.9241  142.5641  160.5183 C   0  0  0  0  0  0  0  0  0  0  0  0
  152.3156  143.7503  160.0472 N   0  0  0  0  0  0  0  0  0  0  0  0
  150.8678  143.9185  160.1180 C   0  0  0  0  0  0  0  0  0  0  0  0
  150.5623  145.0958  159.1967 C   0  0  0  0  0  0  0  0  0  0  0  0
  151.5838  144.9071  158.0793 C   0  0  0  0  0  0  0  0  0  0  0  0
  152.8063  144.3285  158.7996 C   0  0  0  0  0  0  0  0  0  0  0  0
  151.3179  141.6763  156.3797 H   0  0  0  0  0  0  0  0  0  0  0  0
  151.5862  139.9050  154.6322 H   0  0  0  0  0  0  0  0  0  0  0  0
  151.0529  138.7430  155.8214 H   0  0  0  0  0  0  0  0  0  0  0  0
  149.0247  139.1909  154.7363 H   0  0  0  0  0  0  0  0  0  0  0  0
  148.5966  139.7975  157.1041 H   0  0  0  0  0  0  0  0  0  0  0  0
  149.1633  141.4396  156.8267 H   0  0  0  0  0  0  0  0  0  0  0  0
  145.8784  140.6146  157.4045 H   0  0  0  0  0  0  0  0  0  0  0  0
  146.8598  142.0660  157.6349 H   0  0  0  0  0  0  0  0  0  0  0  0
  144.3593  141.8553  156.0762 H   0  0  0  0  0  0  0  0  0  0  0  0
  145.2670  143.2934  156.5255 H   0  0  0  0  0  0  0  0  0  0  0  0
  145.4321  141.6603  154.0121 H   0  0  0  0  0  0  0  0  0  0  0  0
  145.8118  143.3724  154.2100 H   0  0  0  0  0  0  0  0  0  0  0  0
  147.9248  142.8640  155.2551 H   0  0  0  0  0  0  0  0  0  0  0  0
  147.6736  140.5776  153.2180 H   0  0  0  0  0  0  0  0  0  0  0  0
  148.2505  142.2029  152.8703 H   0  0  0  0  0  0  0  0  0  0  0  0
  152.0660  142.2675  158.0920 H   0  0  0  0  0  0  0  0  0  0  0  0
  153.6215  139.2971  159.7286 H   0  0  0  0  0  0  0  0  0  0  0  0
  154.6255  139.4294  161.9934 H   0  0  0  0  0  0  0  0  0  0  0  0
  154.5285  141.6084  163.2289 H   0  0  0  0  0  0  0  0  0  0  0  0
  150.3556  143.0283  159.7503 H   0  0  0  0  0  0  0  0  0  0  0  0
  150.5383  144.1069  161.1402 H   0  0  0  0  0  0  0  0  0  0  0  0
  149.5320  145.1005  158.8399 H   0  0  0  0  0  0  0  0  0  0  0  0
  150.7477  146.0365  159.7171 H   0  0  0  0  0  0  0  0  0  0  0  0
  151.2056  144.1814  157.3580 H   0  0  0  0  0  0  0  0  0  0  0  0
  151.8050  145.8301  157.5431 H   0  0  0  0  0  0  0  0  0  0  0  0
  153.5087  145.1277  159.0361 H   0  0  0  0  0  0  0  0  0  0  0  0
  153.3233  143.5940  158.1803 H   0  0  0  0  0  0  0  0  0  0  0  0
  146.9152  140.1524  155.4609 H   0  0  0  0  0  0  0  0  0  0  0  0
  1  2  2  0  0  0  0
  2  3  1  0  0  0  0
  2 14  1  0  0  0  0
  3  4  1  0  0  0  0
  3 26  1  0  0  0  0
  4  5  1  0  0  0  0
  4 27  1  0  0  0  0
  4 28  1  0  0  0  0
  5 13  1  0  0  0  0
  5  6  1  0  0  0  0
  5 29  1  0  0  0  0
  6  7  1  0  0  0  0
  6 30  1  0  0  0  0
  6 31  1  0  0  0  0
  7 11  1  0  0  0  0
  7  8  1  0  0  0  0
  7 53  1  0  0  0  0
  8  9  1  0  0  0  0
  8 32  1  0  0  0  0
  8 33  1  0  0  0  0
  9 10  1  0  0  0  0
  9 34  1  0  0  0  0
  9 35  1  0  0  0  0
 10 11  1  0  0  0  0
 10 36  1  0  0  0  0
 10 37  1  0  0  0  0
 11 12  1  0  0  0  0
 11 38  1  0  0  0  0
 12 13  1  0  0  0  0
 12 39  1  0  0  0  0
 12 40  1  0  0  0  0
 14 15  1  0  0  0  0
 14 41  1  0  0  0  0
 15 20  1  0  0  0  0
 15 16  2  0  0  0  0
 16 17  1  0  0  0  0
 16 42  1  0  0  0  0
 17 18  2  0  0  0  0
 17 43  1  0  0  0  0
 18 19  1  0  0  0  0
 18 44  1  0  0  0  0
 19 20  2  0  0  0  0
 20 21  1  0  0  0  0
 21 25  1  0  0  0  0
 21 22  1  0  0  0  0
 22 23  1  0  0  0  0
 22 45  1  0  0  0  0
 22 46  1  0  0  0  0
 23 24  1  0  0  0  0
 23 47  1  0  0  0  0
 23 48  1  0  0  0  0
 24 25  1  0  0  0  0
 24 49  1  0  0  0  0
 24 50  1  0  0  0  0
 25 51  1  0  0  0  0
 25 52  1  0  0  0  0
M  CHG  1   7   1
M  END
> <s_m_source_file>
AV-unprocessed.smi

> <i_m_source_file_index>
1830

> <i_lp_mmshare_version>
43012

> <i_f3d_flags>
0

> <s_epik_input>
W0NIMl0xW0NIMl1bQ0gyXVtDQEhdKE4xMilbQ0gyXU9bQ0BASF0oW0NIMl0yKVtDSDJdW05IXUMoPU8pW05IXWMzW2NIXVtjSF1bY0hdbmMzTjRbQ0gyXVtDSDJdW0NIMl1bQ0gyXTQ=

> <s_epik_cmdline>
J2VwaWtfcHl0aG9uJywgJy1waCcsICc3LjAnLCAnLXRuJywgJzgnLCAnLW1hJywgJzIwMCcsICctbWV0YWxfYmluZGluZycsICctaW1hZScsICc8aW5maWxlLm1hZT4nLCAnLW9tYWUnLCAnPG91dGZpbGUubWFlPic=

> <r_lp_tautomer_probability>
1

> <r_epik_Ionization_Penalty>
0.193547

> <r_epik_Ionization_Penalty_Charging>
0.10673

> <r_epik_Ionization_Penalty_Neutral>
0.0868166

> <r_epik_State_Penalty>
0.173595

> <r_epik_Charging_Adjusted_Penalty>
0.280326

> <i_epik_Tot_Q>
1

> <i_epik_Tot_abs_Q>
1

> <r_epik_Metal_State_Penalty>
0.164683

> <b_epik_Metal_Only>
0

> <s_lp_Force_Field>
OPLS_2005

> <r_lp_Energy>
64.524

> <b_lp_Chiralities_Consistent>
1

> <s_lp_Variant>
AV-unprocessed.smi:1830-8

> <Gold.Version>
5.8.1

> <Gold.Id.Protein>
6NUR|6NUR_protein|mol2

> <Gold.PLP.Fitness>
43.8054

> <Gold.PLP.PLP>
-44.1890

> <Gold.PLP.part.hbond>
-1.9043

> <Gold.PLP.part.metal>
0.0000

> <Gold.PLP.part.buried>
-2.8604

> <Gold.PLP.part.nonpolar>
-39.6174

> <Gold.PLP.part.repulsive>
0.4669

> <Gold.PLP.ligand.clash>
0.0000

> <Gold.PLP.ligand.torsion>
0.6569

> <Gold.PLP.Chemscore.Hbond>
0.1954

> <Gold.PLP.Chemscore.CHOScore>
0.0000

> <Gold.PLP.Chemscore.Metal>
0.0000

> <Gold.Chemscore.Hbonds>
donor molecule, donor type, donor heavy atom, donor atom, acceptor molecule, acceptor atom, score
      P1  H  7989  7998       L1    13  0.19

> <Gold.PLP.Chemscore.Internal.Correction>
0.3441

> <Gold.Rescore>
     Score         DG    S(hbond)    S(metal)    S(lipo)     H(rot)  DE(clash)    DE(int)     intcor
     12.58     -15.75       0.03        0.00     117.84       1.41       0.20       2.96       ----

> <Gold.Chemscore.Fitness>
12.5843

> <Gold.Chemscore.DG>
-15.7516

> <Gold.Chemscore.ZeroCoef>
-5.4800

> <Gold.Chemscore.Hbond>
0.0255

> <Gold.Chemscore.Metal>
0.0000

> <Gold.Chemscore.Lipo>
117.8422

> <Gold.Chemscore.Internal_Hbond>
0.0000

> <Gold.Chemscore.DEClash>
0.2040

> <Gold.Chemscore.DEInternal>
2.9633

> <Gold.Chemscore.Rot>
1.4067

> <Gold.Chemscore.Internal.Correction>
   9.000000E+99

> <Gold.Chemscore.Hbonds>
donor molecule, donor type, donor heavy atom, donor atom, acceptor molecule, acceptor atom, score
      P1  H  7989  7998       L1    13  0.04

> <Gold.Chemscore.Hbond.Weighted>
-0.0851

> <Gold.Chemscore.Metal.Weighted>
-0.0000

> <Gold.Chemscore.Lipo.Weighted>
-13.7875

> <Gold.Chemscore.Internal_Hbond.Weighted>
0.0000

> <Gold.Chemscore.DEClash.Weighted>
0.2040

> <Gold.Chemscore.DEInternal.Weighted>
2.9633

> <Gold.Chemscore.Rot.Weighted>
3.6011

> <Gold.Chemscore.Internal.Correction.Weighted>
   9.000000E+99

> <Gold.Protein.RotatedTorsions>
[ 6907 6896 6895 6894 ] final -121.82 input  -60.11 | X-H torsion
[ 7974 7965 7964 7962 ] final  164.30 input  175.53 | X-H torsion
[ 8008 7997 7996 7995 ] final   64.45 input   59.86 | X-H torsion
[ 10167 10162 10161 10158 ] final   93.86 input  -65.29 | X-H torsion
[ 10718 10713 10712 10709 ] final  -41.05 input   66.30 | X-H torsion
[ 10763 10752 10751 10750 ] final  -47.29 input  -60.55 | X-H torsion
[ 11005 11000 10999 10996 ] final   88.49 input  -57.11 | X-H torsion

> <Gold.Protein.ActiveResidues>
 VAL166  LYS551  ARG553  GLY616  TRP617  ASP618  TYR619  PRO620  LYS621  CYS622 
 ASP623  PHE694  ASN695  SER759  ASP760  ASP761  ALA762  ILE779  LEU786  VAL792 
 PHE793  MET794  SER795  GLU796  ALA797  LYS798  CYS799  TRP800  GLU811  SER814 

> <Gold.Protein.RotatedAtoms>
  150.8518  133.7775  159.3022 H   0  0  0  0  0  0  0  0  0  0  0  0  # atno 6907 bound_to 6896
  151.5444  135.1066  159.9944 H   0  0  0  0  0  0  0  0  0  0  0  0  # atno 6908 bound_to 6896
  152.4559  133.7678  159.6838 H   0  0  0  0  0  0  0  0  0  0  0  0  # atno 6909 bound_to 6896
  144.7551  139.8306  143.6352 H   0  0  0  0  0  0  0  0  0  0  0  0  # atno 7974 bound_to 7965
  155.6462  140.3497  155.4732 H   0  0  0  0  0  0  0  0  0  0  0  0  # atno 8008 bound_to 7997
  155.9885  140.1189  157.0684 H   0  0  0  0  0  0  0  0  0  0  0  0  # atno 8009 bound_to 7997
  154.4212  140.1124  156.5519 H   0  0  0  0  0  0  0  0  0  0  0  0  # atno 8010 bound_to 7997
  139.8139  144.6761  150.9605 H   0  0  0  0  0  0  0  0  0  0  0  0  # atno 10167 bound_to 10162
  156.2746  130.4210  149.8401 H   0  0  0  0  0  0  0  0  0  0  0  0  # atno 10718 bound_to 10713
  154.0590  135.6620  153.4809 H   0  0  0  0  0  0  0  0  0  0  0  0  # atno 10763 bound_to 10752
  153.0434  135.5130  154.7678 H   0  0  0  0  0  0  0  0  0  0  0  0  # atno 10764 bound_to 10752
  154.6708  135.3029  154.9711 H   0  0  0  0  0  0  0  0  0  0  0  0  # atno 10765 bound_to 10752
  139.8895  134.8491  156.3007 H   0  0  0  0  0  0  0  0  0  0  0  0  # atno 11005 bound_to 11000
  146.1552  139.4647  143.0023 LP  0  0  0  0  0  0  0  0  0  0  0  0  # atno 17320 bound_to 7965
  145.6807  141.0192  143.1608 LP  0  0  0  0  0  0  0  0  0  0  0  0  # atno 17321 bound_to 7965
  140.7816  143.4158  151.0920 LP  0  0  0  0  0  0  0  0  0  0  0  0  # atno 17342 bound_to 10162
  139.7823  143.8338  152.3139 LP  0  0  0  0  0  0  0  0  0  0  0  0  # atno 17343 bound_to 10162
  156.5870  130.8490  151.3398 LP  0  0  0  0  0  0  0  0  0  0  0  0  # atno 17370 bound_to 10713
  157.7295  130.9672  150.1791 LP  0  0  0  0  0  0  0  0  0  0  0  0  # atno 17371 bound_to 10713
  140.9915  133.7206  156.0821 LP  0  0  0  0  0  0  0  0  0  0  0  0  # atno 17394 bound_to 11000
  140.7619  134.3930  157.5524 LP  0  0  0  0  0  0  0  0  0  0  0  0  # atno 17395 bound_to 11000

$$$$
