AV-unprocessed.smi:102|AV-procd|sdf|970|dock10
  -GOLD-   2262017523D 1   1.00000     0.00000
 Structure written by MMmdl.
 43 44  0  0  0  0  0  0  0  0  2 V2000
  147.5577  135.9226  162.5175 C   0  0  0  0  0  0  0  0  0  0  0  0
  147.4738  136.4468  161.0901 C   0  0  0  0  0  0  0  0  0  0  0  0
  146.7558  137.4037  160.7989 O   0  0  0  0  0  0  0  0  0  0  0  0
  148.2561  135.7529  160.2437 O   0  0  0  0  0  0  0  0  0  0  0  0
  148.2790  136.0722  158.8590 C   0  0  0  0  0  0  0  0  0  0  0  0
  148.7799  137.5073  158.6326 C   0  0  1  0  0  0  0  0  0  0  0  0
  149.9363  137.7577  159.4143 O   0  0  0  0  0  0  0  0  0  0  0  0
  150.6146  138.8429  158.8692 C   0  0  1  0  0  0  0  0  0  0  0  0
  152.0882  138.7064  159.1826 N   0  0  0  0  0  0  0  0  0  0  0  0
  152.5559  137.6456  159.9402 C   0  0  0  0  0  0  0  0  0  0  0  0
  153.8705  137.5052  160.2064 C   0  0  0  0  0  0  0  0  0  0  0  0
  154.2970  136.4649  160.9432 F   0  0  0  0  0  0  0  0  0  0  0  0
  154.8226  138.4846  159.6850 C   0  0  0  0  0  0  0  0  0  0  0  0
  156.0192  138.3571  159.9396 O   0  0  0  0  0  0  0  0  0  0  0  0
  154.3340  139.5085  158.9259 N   0  5  0  0  0  0  0  0  0  0  0  0
  153.0050  139.6502  158.6470 C   0  0  0  0  0  0  0  0  0  0  0  0
  152.5562  140.5543  157.9417 O   0  0  0  0  0  0  0  0  0  0  0  0
  150.3116  138.8617  157.3564 C   0  0  1  0  0  0  0  0  0  0  0  0
  151.4638  138.5782  156.5683 O   0  0  0  0  0  0  0  0  0  0  0  0
  151.5754  139.0733  155.3257 C   0  0  0  0  0  0  0  0  0  0  0  0
  152.8925  138.6870  154.6670 C   0  0  0  0  0  0  0  0  0  0  0  0
  150.7387  139.7605  154.7395 O   0  0  0  0  0  0  0  0  0  0  0  0
  149.2713  137.7569  157.2045 C   0  0  2  0  0  0  0  0  0  0  0  0
  148.2201  138.2197  156.3661 O   0  0  0  0  0  0  0  0  0  0  0  0
  147.4560  139.2595  156.7400 C   0  0  0  0  0  0  0  0  0  0  0  0
  146.4486  139.6529  155.6681 C   0  0  0  0  0  0  0  0  0  0  0  0
  147.5208  139.8615  157.8118 O   0  0  0  0  0  0  0  0  0  0  0  0
  148.5502  136.1049  162.9299 H   0  0  0  0  0  0  0  0  0  0  0  0
  147.3639  134.8501  162.5402 H   0  0  0  0  0  0  0  0  0  0  0  0
  146.8232  136.4192  163.1519 H   0  0  0  0  0  0  0  0  0  0  0  0
  148.8654  135.3536  158.2843 H   0  0  0  0  0  0  0  0  0  0  0  0
  147.2533  135.9904  158.5000 H   0  0  0  0  0  0  0  0  0  0  0  0
  148.0109  138.2363  158.8957 H   0  0  0  0  0  0  0  0  0  0  0  0
  150.2689  139.7427  159.3809 H   0  0  0  0  0  0  0  0  0  0  0  0
  151.8660  136.9082  160.3231 H   0  0  0  0  0  0  0  0  0  0  0  0
  149.8992  139.8446  157.1215 H   0  0  0  0  0  0  0  0  0  0  0  0
  153.7289  139.1250  155.2119 H   0  0  0  0  0  0  0  0  0  0  0  0
  152.9258  139.0421  153.6369 H   0  0  0  0  0  0  0  0  0  0  0  0
  153.0105  137.6034  154.6633 H   0  0  0  0  0  0  0  0  0  0  0  0
  149.7581  136.8593  156.8186 H   0  0  0  0  0  0  0  0  0  0  0  0
  145.5974  138.9720  155.6839 H   0  0  0  0  0  0  0  0  0  0  0  0
  146.9067  139.6138  154.6796 H   0  0  0  0  0  0  0  0  0  0  0  0
  146.0851  140.6661  155.8395 H   0  0  0  0  0  0  0  0  0  0  0  0
  1  2  1  0  0  0  0
  1 28  1  0  0  0  0
  1 29  1  0  0  0  0
  1 30  1  0  0  0  0
  2  3  2  0  0  0  0
  2  4  1  0  0  0  0
  4  5  1  0  0  0  0
  5  6  1  0  0  0  0
  5 31  1  0  0  0  0
  5 32  1  0  0  0  0
  6 23  1  0  0  0  0
  6  7  1  0  0  0  0
  6 33  1  0  0  0  0
  7  8  1  0  0  0  0
  8  9  1  0  0  0  0
  8 18  1  0  0  0  0
  8 34  1  0  0  0  0
  9 16  1  0  0  0  0
  9 10  1  0  0  0  0
 10 11  2  0  0  0  0
 10 35  1  0  0  0  0
 11 12  1  0  0  0  0
 11 13  1  0  0  0  0
 13 14  2  0  0  0  0
 13 15  1  0  0  0  0
 15 16  1  0  0  0  0
 16 17  2  0  0  0  0
 18 19  1  0  0  0  0
 18 23  1  0  0  0  0
 18 36  1  0  0  0  0
 19 20  1  0  0  0  0
 20 21  1  0  0  0  0
 20 22  2  0  0  0  0
 21 37  1  0  0  0  0
 21 38  1  0  0  0  0
 21 39  1  0  0  0  0
 23 24  1  0  0  0  0
 23 40  1  0  0  0  0
 24 25  1  0  0  0  0
 25 26  1  0  0  0  0
 25 27  2  0  0  0  0
 26 41  1  0  0  0  0
 26 42  1  0  0  0  0
 26 43  1  0  0  0  0
M  CHG  1  15  -1
M  END
> <s_m_source_file>
AV-unprocessed.smi

> <i_m_source_file_index>
102

> <i_lp_mmshare_version>
43012

> <i_f3d_flags>
0

> <s_epik_input>
W0NIM11DKD1PKU9bQ0gyXVtDQEBIXTFPW0NASF0oW0NAQEhdKE9DKD1PKVtDSDNdKVtDQEhdMU9DKD1PKVtDSDNdKW4yW2NIXWMoRiljKD1PKVtuSF1jMj1P

> <s_epik_cmdline>
J2VwaWtfcHl0aG9uJywgJy1waCcsICc3LjAnLCAnLXRuJywgJzgnLCAnLW1hJywgJzIwMCcsICctbWV0YWxfYmluZGluZycsICctaW1hZScsICc8aW5maWxlLm1hZT4nLCAnLW9tYWUnLCAnPG91dGZpbGUubWFlPic=

> <r_epik_Ionization_Penalty>
1.40304

> <r_epik_Ionization_Penalty_Charging>
1.43915e-08

> <r_epik_Ionization_Penalty_Neutral>
1.40304

> <r_epik_State_Penalty>
1.48536

> <r_epik_Charging_Adjusted_Penalty>
1.48536

> <i_epik_Tot_Q>
-1

> <i_epik_Tot_abs_Q>
1

> <r_epik_Metal_State_Penalty>
0.00663881

> <b_epik_Metal_Only>
0

> <s_epik_Chemistry_Notes>
This compound has an ester and may undergo hydrolysis at high or low pH. This compound contains an acetal/aminal-like group ( X-CH(R)-Y where X, Y are N, S, or O) that may be acid/base labile, releasing an aldehyde.

> <s_lp_Force_Field>
OPLS_2005

> <r_lp_Energy>
20.3433

> <b_lp_Chiralities_Consistent>
1

> <s_lp_Variant>
AV-unprocessed.smi:102-26

> <Gold.Version>
5.8.1

> <Gold.Id.Protein>
6NUR|6NUR_protein|mol2

> <Gold.PLP.Fitness>
44.7260

> <Gold.PLP.PLP>
-33.7514

> <Gold.PLP.part.hbond>
-5.7215

> <Gold.PLP.part.metal>
0.0000

> <Gold.PLP.part.buried>
-4.6919

> <Gold.PLP.part.nonpolar>
-23.1736

> <Gold.PLP.part.repulsive>
0.0744

> <Gold.PLP.ligand.clash>
0.0000

> <Gold.PLP.ligand.torsion>
0.5942

> <Gold.PLP.Chemscore.Hbond>
4.0000

> <Gold.PLP.Chemscore.CHOScore>
0.0000

> <Gold.PLP.Chemscore.Metal>
0.0000

> <Gold.Chemscore.Hbonds>
donor molecule, donor type, donor heavy atom, donor atom, acceptor molecule, acceptor atom, score
      P1  H  6934  6947       L1     3  1.00
      P1  H  7989  7998       L1    22  1.00
      P1  H  7997  8008       L1    15  2.00

> <Gold.PLP.Chemscore.Internal.Correction>
0.1630

> <Gold.Rescore>
     Score         DG    S(hbond)    S(metal)    S(lipo)     H(rot)  DE(clash)    DE(int)     intcor
      3.83      -7.74       2.36        0.00      39.24       4.00       0.03       3.88       ----

> <Gold.Chemscore.Fitness>
3.8268

> <Gold.Chemscore.DG>
-7.7415

> <Gold.Chemscore.ZeroCoef>
-5.4800

> <Gold.Chemscore.Hbond>
2.3645

> <Gold.Chemscore.Metal>
0.0000

> <Gold.Chemscore.Lipo>
39.2436

> <Gold.Chemscore.Internal_Hbond>
0.0000

> <Gold.Chemscore.DEClash>
0.0310

> <Gold.Chemscore.DEInternal>
3.8837

> <Gold.Chemscore.Rot>
3.9951

> <Gold.Chemscore.Internal.Correction>
   9.000000E+99

> <Gold.Chemscore.Hbonds>
donor molecule, donor type, donor heavy atom, donor atom, acceptor molecule, acceptor atom, score
      P1  H  6934  6947       L1     3  1.00
      P1  H  7989  7998       L1    22  0.70
      P1  H  7997  8008       L1    15  0.44

> <Gold.Chemscore.Hbond.Weighted>
-7.8974

> <Gold.Chemscore.Metal.Weighted>
-0.0000

> <Gold.Chemscore.Lipo.Weighted>
-4.5915

> <Gold.Chemscore.Internal_Hbond.Weighted>
0.0000

> <Gold.Chemscore.DEClash.Weighted>
0.0310

> <Gold.Chemscore.DEInternal.Weighted>
3.8837

> <Gold.Chemscore.Rot.Weighted>
10.2274

> <Gold.Chemscore.Internal.Correction.Weighted>
   9.000000E+99

> <Gold.Protein.RotatedTorsions>
[ 6907 6896 6895 6894 ] final   46.72 input  -60.11 | X-H torsion
[ 7974 7965 7964 7962 ] final  -35.70 input  175.53 | X-H torsion
[ 8008 7997 7996 7995 ] final -124.81 input   59.86 | X-H torsion
[ 10167 10162 10161 10158 ] final   65.68 input  -65.29 | X-H torsion
[ 10718 10713 10712 10709 ] final  -36.06 input   66.30 | X-H torsion
[ 10763 10752 10751 10750 ] final   60.65 input  -60.55 | X-H torsion
[ 11005 11000 10999 10996 ] final  151.54 input  -57.11 | X-H torsion

> <Gold.Protein.ActiveResidues>
 VAL166  LYS551  ARG553  GLY616  TRP617  ASP618  TYR619  PRO620  LYS621  CYS622 
 ASP623  PHE694  ASN695  SER759  ASP760  ASP761  ALA762  ILE779  LEU786  VAL792 
 PHE793  MET794  SER795  GLU796  ALA797  LYS798  CYS799  TRP800  GLU811  SER814 

> <Gold.Protein.RotatedAtoms>
  152.2597  134.8046  160.0432 H   0  0  0  0  0  0  0  0  0  0  0  0  # atno 6907 bound_to 6896
  151.8697  133.3468  159.3739 H   0  0  0  0  0  0  0  0  0  0  0  0  # atno 6908 bound_to 6896
  150.7112  134.5052  159.5625 H   0  0  0  0  0  0  0  0  0  0  0  0  # atno 6909 bound_to 6896
  146.0724  140.6190  142.8946 H   0  0  0  0  0  0  0  0  0  0  0  0  # atno 7974 bound_to 7965
  155.2030  140.0416  157.2920 H   0  0  0  0  0  0  0  0  0  0  0  0  # atno 8008 bound_to 7997
  154.6062  140.2465  155.7699 H   0  0  0  0  0  0  0  0  0  0  0  0  # atno 8009 bound_to 7997
  156.2352  140.2924  156.0302 H   0  0  0  0  0  0  0  0  0  0  0  0  # atno 8010 bound_to 7997
  140.1087  144.4838  150.6992 H   0  0  0  0  0  0  0  0  0  0  0  0  # atno 10167 bound_to 10162
  156.3313  130.4279  149.7870 H   0  0  0  0  0  0  0  0  0  0  0  0  # atno 10718 bound_to 10713
  152.9927  135.5529  154.5907 H   0  0  0  0  0  0  0  0  0  0  0  0  # atno 10763 bound_to 10752
  154.5269  135.2811  155.1216 H   0  0  0  0  0  0  0  0  0  0  0  0  # atno 10764 bound_to 10752
  154.2546  135.6392  153.5305 H   0  0  0  0  0  0  0  0  0  0  0  0  # atno 10765 bound_to 10752
  140.1228  134.8852  157.2096 H   0  0  0  0  0  0  0  0  0  0  0  0  # atno 11005 bound_to 11000
  144.7240  140.4466  143.6987 LP  0  0  0  0  0  0  0  0  0  0  0  0  # atno 17320 bound_to 7965
  145.6367  139.1544  143.2939 LP  0  0  0  0  0  0  0  0  0  0  0  0  # atno 17321 bound_to 7965
  140.6938  143.2391  151.5058 LP  0  0  0  0  0  0  0  0  0  0  0  0  # atno 17342 bound_to 10162
  139.5631  144.2107  152.1723 LP  0  0  0  0  0  0  0  0  0  0  0  0  # atno 17343 bound_to 10162
  156.5142  130.8185  151.3180 LP  0  0  0  0  0  0  0  0  0  0  0  0  # atno 17370 bound_to 10713
  157.7431  130.9904  150.2564 LP  0  0  0  0  0  0  0  0  0  0  0  0  # atno 17371 bound_to 10713
  140.2943  134.3205  155.7307 LP  0  0  0  0  0  0  0  0  0  0  0  0  # atno 17394 bound_to 11000
  141.2155  133.7553  156.9548 LP  0  0  0  0  0  0  0  0  0  0  0  0  # atno 17395 bound_to 11000

$$$$
