AV-unprocessed.smi:1752|AV-procd|sdf|7059|dock5
  -GOLD-   22720 8273D 1   1.00000     0.00000
 Structure written by MMmdl.
 43 44  0  0  0  0  0  0  0  0  2 V2000
  149.9724  141.9677  157.7040 C   0  0  0  0  0  0  0  0  0  0  0  0
  151.5033  141.8914  157.6295 C   0  0  1  0  0  0  0  0  0  0  0  0
  152.1527  142.3051  158.9676 C   0  0  0  0  0  0  0  0  0  0  0  0
  151.5835  143.5235  159.5159 N   0  0  0  0  0  0  0  0  0  0  0  0
  152.1545  144.7765  159.5935 C   0  0  0  0  0  0  0  0  0  0  0  0
  151.2367  145.6061  160.1705 C   0  0  0  0  0  0  0  0  0  0  0  0
  150.1227  144.7562  160.4191 C   0  0  0  0  0  0  0  0  0  0  0  0
  150.3342  143.5100  160.0279 N   0  0  0  0  0  0  0  0  0  0  0  0
  151.8941  140.5296  157.2662 N   0  0  0  0  0  0  0  0  0  0  0  0
  151.5913  139.9017  156.1153 C   0  0  0  0  0  0  0  0  0  0  0  0
  150.9178  140.4285  155.2290 O   0  0  0  0  0  0  0  0  0  0  0  0
  152.1613  138.6786  155.9786 N   0  0  0  0  0  0  0  0  0  0  0  0
  152.7666  137.9233  157.0981 C   0  0  0  0  0  0  0  0  0  0  0  0
  152.6768  136.3856  156.9501 C   0  0  0  0  0  0  0  0  0  0  0  0
  151.2465  135.8203  156.8092 C   0  0  0  0  0  0  0  0  0  0  0  0
  150.3411  136.6073  155.9288 N   0  3  2  0  0  0  0  0  0  0  0  0
  149.0086  135.9757  155.8081 C   0  0  0  0  0  0  0  0  0  0  0  0
  150.9047  136.9861  154.6051 C   0  0  0  0  0  0  0  0  0  0  0  0
  152.0952  137.9701  154.6890 C   0  0  0  0  0  0  0  0  0  0  0  0
  149.6426  142.9790  157.9434 H   0  0  0  0  0  0  0  0  0  0  0  0
  149.5768  141.2997  158.4700 H   0  0  0  0  0  0  0  0  0  0  0  0
  149.5177  141.6913  156.7520 H   0  0  0  0  0  0  0  0  0  0  0  0
  151.8215  142.5908  156.8543 H   0  0  0  0  0  0  0  0  0  0  0  0
  152.0282  141.5122  159.7068 H   0  0  0  0  0  0  0  0  0  0  0  0
  153.2273  142.4472  158.8440 H   0  0  0  0  0  0  0  0  0  0  0  0
  153.1523  144.9723  159.2292 H   0  0  0  0  0  0  0  0  0  0  0  0
  151.3440  146.6593  160.3832 H   0  0  0  0  0  0  0  0  0  0  0  0
  149.1732  145.0065  160.8692 H   0  0  0  0  0  0  0  0  0  0  0  0
  152.4732  140.0365  157.9300 H   0  0  0  0  0  0  0  0  0  0  0  0
  153.8119  138.2210  157.1902 H   0  0  0  0  0  0  0  0  0  0  0  0
  152.2851  138.1833  158.0423 H   0  0  0  0  0  0  0  0  0  0  0  0
  153.2913  136.0415  156.1189 H   0  0  0  0  0  0  0  0  0  0  0  0
  153.1382  135.9269  157.8252 H   0  0  0  0  0  0  0  0  0  0  0  0
  151.3024  134.7914  156.4505 H   0  0  0  0  0  0  0  0  0  0  0  0
  150.7891  135.7779  157.7984 H   0  0  0  0  0  0  0  0  0  0  0  0
  149.0717  135.0322  155.2646 H   0  0  0  0  0  0  0  0  0  0  0  0
  148.3150  136.6303  155.2791 H   0  0  0  0  0  0  0  0  0  0  0  0
  148.5848  135.7760  156.7930 H   0  0  0  0  0  0  0  0  0  0  0  0
  151.1818  136.0939  154.0419 H   0  0  0  0  0  0  0  0  0  0  0  0
  150.1142  137.4750  154.0336 H   0  0  0  0  0  0  0  0  0  0  0  0
  152.0442  138.6709  153.8533 H   0  0  0  0  0  0  0  0  0  0  0  0
  153.0353  137.4483  154.5134 H   0  0  0  0  0  0  0  0  0  0  0  0
  150.1857  137.4822  156.4094 H   0  0  0  0  0  0  0  0  0  0  0  0
  1  2  1  0  0  0  0
  1 20  1  0  0  0  0
  1 21  1  0  0  0  0
  1 22  1  0  0  0  0
  2  3  1  0  0  0  0
  2  9  1  0  0  0  0
  2 23  1  0  0  0  0
  3  4  1  0  0  0  0
  3 24  1  0  0  0  0
  3 25  1  0  0  0  0
  4  8  1  0  0  0  0
  4  5  1  0  0  0  0
  5  6  2  0  0  0  0
  5 26  1  0  0  0  0
  6  7  1  0  0  0  0
  6 27  1  0  0  0  0
  7  8  2  0  0  0  0
  7 28  1  0  0  0  0
  9 10  1  0  0  0  0
  9 29  1  0  0  0  0
 10 11  2  0  0  0  0
 10 12  1  0  0  0  0
 12 19  1  0  0  0  0
 12 13  1  0  0  0  0
 13 14  1  0  0  0  0
 13 30  1  0  0  0  0
 13 31  1  0  0  0  0
 14 15  1  0  0  0  0
 14 32  1  0  0  0  0
 14 33  1  0  0  0  0
 15 16  1  0  0  0  0
 15 34  1  0  0  0  0
 15 35  1  0  0  0  0
 16 17  1  0  0  0  0
 16 18  1  0  0  0  0
 16 43  1  0  0  0  0
 17 36  1  0  0  0  0
 17 37  1  0  0  0  0
 17 38  1  0  0  0  0
 18 19  1  0  0  0  0
 18 39  1  0  0  0  0
 18 40  1  0  0  0  0
 19 41  1  0  0  0  0
 19 42  1  0  0  0  0
M  CHG  1  16   1
M  END
> <s_m_source_file>
AV-unprocessed.smi

> <i_m_source_file_index>
1752

> <i_lp_mmshare_version>
43012

> <i_f3d_flags>
0

> <s_epik_input>
bjFbY0hdW2NIXVtjSF1uMVtDSDJdW0NAQEhdKFtDSDNdKVtOSF1DKD1PKU4yW0NIMl1bQ0gyXVtDSDJdTihbQ0gzXSlbQ0gyXVtDSDJdMg==

> <s_epik_cmdline>
J2VwaWtfcHl0aG9uJywgJy1waCcsICc3LjAnLCAnLXRuJywgJzgnLCAnLW1hJywgJzIwMCcsICctbWV0YWxfYmluZGluZycsICctaW1hZScsICc8aW5maWxlLm1hZT4nLCAnLW9tYWUnLCAnPG91dGZpbGUubWFlPic=

> <r_lp_tautomer_probability>
1

> <r_epik_Ionization_Penalty>
0.00208423

> <r_epik_Ionization_Penalty_Charging>
0.00203643

> <r_epik_Ionization_Penalty_Neutral>
4.77939e-05

> <r_epik_State_Penalty>
0.00139278

> <r_epik_Charging_Adjusted_Penalty>
0.00342922

> <i_epik_Tot_Q>
1

> <i_epik_Tot_abs_Q>
1

> <r_epik_Metal_State_Penalty>
-0

> <b_epik_Metal_Only>
0

> <s_lp_Force_Field>
OPLS_2005

> <r_lp_Energy>
45.8522

> <b_lp_Chiralities_Consistent>
1

> <s_lp_Variant>
AV-unprocessed.smi:1752-2

> <Gold.Version>
5.8.1

> <Gold.Id.Protein>
6NUR|6NUR_protein|mol2

> <Gold.PLP.Fitness>
36.1194

> <Gold.PLP.PLP>
-33.5794

> <Gold.PLP.part.hbond>
-2.0000

> <Gold.PLP.part.metal>
0.0000

> <Gold.PLP.part.buried>
-3.3550

> <Gold.PLP.part.nonpolar>
-30.0096

> <Gold.PLP.part.repulsive>
0.3096

> <Gold.PLP.ligand.clash>
0.0000

> <Gold.PLP.ligand.torsion>
0.2776

> <Gold.PLP.Chemscore.Hbond>
1.0000

> <Gold.PLP.Chemscore.CHOScore>
0.0000

> <Gold.PLP.Chemscore.Metal>
0.0000

> <Gold.Chemscore.Hbonds>
donor molecule, donor type, donor heavy atom, donor atom, acceptor molecule, acceptor atom, score
      P1  H  7989  7998       L1    11  1.00

> <Gold.PLP.Chemscore.Internal.Correction>
0.0952

> <Gold.Rescore>
     Score         DG    S(hbond)    S(metal)    S(lipo)     H(rot)  DE(clash)    DE(int)     intcor
     13.68     -15.43       0.96        0.00      88.52       1.41       0.11       1.64       ----

> <Gold.Chemscore.Fitness>
13.6784

> <Gold.Chemscore.DG>
-15.4312

> <Gold.Chemscore.ZeroCoef>
-5.4800

> <Gold.Chemscore.Hbond>
0.9613

> <Gold.Chemscore.Metal>
0.0000

> <Gold.Chemscore.Lipo>
88.5164

> <Gold.Chemscore.Internal_Hbond>
0.0000

> <Gold.Chemscore.DEClash>
0.1146

> <Gold.Chemscore.DEInternal>
1.6382

> <Gold.Chemscore.Rot>
1.4125

> <Gold.Chemscore.Internal.Correction>
   9.000000E+99

> <Gold.Chemscore.Hbonds>
donor molecule, donor type, donor heavy atom, donor atom, acceptor molecule, acceptor atom, score
      P1  H  7989  7998       L1    11  0.94

> <Gold.Chemscore.Hbond.Weighted>
-3.2108

> <Gold.Chemscore.Metal.Weighted>
-0.0000

> <Gold.Chemscore.Lipo.Weighted>
-10.3564

> <Gold.Chemscore.Internal_Hbond.Weighted>
0.0000

> <Gold.Chemscore.DEClash.Weighted>
0.1146

> <Gold.Chemscore.DEInternal.Weighted>
1.6382

> <Gold.Chemscore.Rot.Weighted>
3.6160

> <Gold.Chemscore.Internal.Correction.Weighted>
   9.000000E+99

> <Gold.Protein.RotatedTorsions>
[ 6907 6896 6895 6894 ] final  -45.62 input  -60.11 | X-H torsion
[ 7974 7965 7964 7962 ] final   55.05 input  175.53 | X-H torsion
[ 8008 7997 7996 7995 ] final -108.04 input   59.86 | X-H torsion
[ 10167 10162 10161 10158 ] final   56.96 input  -65.29 | X-H torsion
[ 10718 10713 10712 10709 ] final  136.94 input   66.30 | X-H torsion
[ 10763 10752 10751 10750 ] final -128.70 input  -60.55 | X-H torsion
[ 11005 11000 10999 10996 ] final   96.72 input  -57.11 | X-H torsion

> <Gold.Protein.ActiveResidues>
 VAL166  LYS551  ARG553  GLY616  TRP617  ASP618  TYR619  PRO620  LYS621  CYS622 
 ASP623  PHE694  ASN695  SER759  ASP760  ASP761  ALA762  ILE779  LEU786  VAL792 
 PHE793  MET794  SER795  GLU796  ALA797  LYS798  CYS799  TRP800  GLU811  SER814 

> <Gold.Protein.RotatedAtoms>
  150.9200  134.8617  159.7482 H   0  0  0  0  0  0  0  0  0  0  0  0  # atno 6907 bound_to 6896
  152.4988  134.4232  159.9497 H   0  0  0  0  0  0  0  0  0  0  0  0  # atno 6908 bound_to 6896
  151.4267  133.3642  159.2798 H   0  0  0  0  0  0  0  0  0  0  0  0  # atno 6909 bound_to 6896
  145.9545  139.4002  143.0286 H   0  0  0  0  0  0  0  0  0  0  0  0  # atno 7974 bound_to 7965
  154.9384  140.0403  157.2084 H   0  0  0  0  0  0  0  0  0  0  0  0  # atno 8008 bound_to 7997
  154.8093  140.2865  155.5843 H   0  0  0  0  0  0  0  0  0  0  0  0  # atno 8009 bound_to 7997
  156.2970  140.2540  156.2978 H   0  0  0  0  0  0  0  0  0  0  0  0  # atno 8010 bound_to 7997
  140.2031  144.3967  150.6520 H   0  0  0  0  0  0  0  0  0  0  0  0  # atno 10167 bound_to 10162
  157.4414  131.1058  151.0139 H   0  0  0  0  0  0  0  0  0  0  0  0  # atno 10718 bound_to 10713
  154.8757  135.3920  154.3799 H   0  0  0  0  0  0  0  0  0  0  0  0  # atno 10763 bound_to 10752
  153.4548  135.7028  153.6092 H   0  0  0  0  0  0  0  0  0  0  0  0  # atno 10764 bound_to 10752
  153.4616  135.3810  155.2310 H   0  0  0  0  0  0  0  0  0  0  0  0  # atno 10765 bound_to 10752
  139.8780  134.8965  156.4200 H   0  0  0  0  0  0  0  0  0  0  0  0  # atno 11005 bound_to 11000
  145.8125  140.9719  143.0941 LP  0  0  0  0  0  0  0  0  0  0  0  0  # atno 17320 bound_to 7965
  144.6802  139.9939  143.7484 LP  0  0  0  0  0  0  0  0  0  0  0  0  # atno 17321 bound_to 7965
  140.6376  143.2197  151.6360 LP  0  0  0  0  0  0  0  0  0  0  0  0  # atno 17342 bound_to 10162
  139.5209  144.3208  152.0912 LP  0  0  0  0  0  0  0  0  0  0  0  0  # atno 17343 bound_to 10162
  157.1001  130.5978  149.5458 LP  0  0  0  0  0  0  0  0  0  0  0  0  # atno 17370 bound_to 10713
  155.9950  130.5015  150.7442 LP  0  0  0  0  0  0  0  0  0  0  0  0  # atno 17371 bound_to 10713
  140.9140  133.7691  155.9826 LP  0  0  0  0  0  0  0  0  0  0  0  0  # atno 17394 bound_to 11000
  140.8514  134.2949  157.5273 LP  0  0  0  0  0  0  0  0  0  0  0  0  # atno 17395 bound_to 11000

$$$$
