AV-unprocessed.smi:5|AV-procd|sdf|38|dock6
  -GOLD-   2262015153D 1   1.00000     0.00000
 Structure written by MMmdl.
 43 44  0  0  0  0  0  0  0  0  2 V2000
  144.1903  135.9463  152.5103 C   0  0  0  0  0  0  0  0  0  0  0  0
  144.6755  134.6248  151.9507 C   0  0  0  0  0  0  0  0  0  0  0  0
  143.8455  133.5899  151.7168 C   0  0  0  0  0  0  0  0  0  0  0  0
  144.3197  132.2694  151.1355 C   0  0  0  0  0  0  0  0  0  0  0  0
  145.7559  132.3811  150.5899 C   0  0  0  0  0  0  0  0  0  0  0  0
  146.5962  133.1153  151.5526 N   0  0  0  0  0  0  0  0  0  0  0  0
  147.5392  132.5685  152.3615 C   0  0  0  0  0  0  0  0  0  0  0  0
  147.6276  131.3590  152.5766 O   0  0  0  0  0  0  0  0  0  0  0  0
  148.4194  133.4494  152.8686 N   0  0  0  0  0  0  0  0  0  0  0  0
  149.6525  133.1027  153.5715 C   0  0  0  0  0  0  0  0  0  0  0  0
  149.9173  133.9653  154.8074 C   0  0  0  0  0  0  0  0  0  0  0  0
  149.8511  135.3160  154.8191 C   0  0  0  0  0  0  0  0  0  0  0  0
  150.1099  136.0897  155.9651 N   0  0  0  0  0  0  0  0  0  0  0  0
  150.0176  137.5613  155.8345 C   0  0  0  0  0  0  0  0  0  0  0  0
  148.5701  138.0047  155.5571 C   0  0  0  0  0  0  0  0  0  0  0  0
  151.0078  138.1024  154.7851 C   0  0  0  0  0  0  0  0  0  0  0  0
  150.4253  135.4629  157.1392 C   0  0  0  0  0  0  0  0  0  0  0  0
  150.6380  136.1370  158.1472 O   0  0  0  0  0  0  0  0  0  0  0  0
  150.4944  134.0971  157.1604 N   0  5  0  0  0  0  0  0  0  0  0  0
  150.2629  133.3099  156.0708 C   0  0  0  0  0  0  0  0  0  0  0  0
  150.3315  132.0822  156.1220 O   0  0  0  0  0  0  0  0  0  0  0  0
  146.1757  134.5210  151.6875 C   0  0  0  0  0  0  0  0  0  0  0  0
  144.4477  136.7601  151.8321 H   0  0  0  0  0  0  0  0  0  0  0  0
  144.6566  136.1423  153.4759 H   0  0  0  0  0  0  0  0  0  0  0  0
  143.1086  135.9472  152.6485 H   0  0  0  0  0  0  0  0  0  0  0  0
  142.7914  133.6727  151.9381 H   0  0  0  0  0  0  0  0  0  0  0  0
  144.2684  131.5124  151.9186 H   0  0  0  0  0  0  0  0  0  0  0  0
  143.6406  131.9581  150.3415 H   0  0  0  0  0  0  0  0  0  0  0  0
  146.1373  131.3975  150.3156 H   0  0  0  0  0  0  0  0  0  0  0  0
  145.7422  132.9470  149.6571 H   0  0  0  0  0  0  0  0  0  0  0  0
  148.2792  134.4266  152.6578 H   0  0  0  0  0  0  0  0  0  0  0  0
  149.5824  132.0602  153.8829 H   0  0  0  0  0  0  0  0  0  0  0  0
  150.5022  133.1673  152.8894 H   0  0  0  0  0  0  0  0  0  0  0  0
  149.5950  135.8958  153.9467 H   0  0  0  0  0  0  0  0  0  0  0  0
  150.2998  138.0454  156.7698 H   0  0  0  0  0  0  0  0  0  0  0  0
  148.4923  139.0922  155.5487 H   0  0  0  0  0  0  0  0  0  0  0  0
  147.8944  137.6341  156.3285 H   0  0  0  0  0  0  0  0  0  0  0  0
  148.2073  137.6447  154.5944 H   0  0  0  0  0  0  0  0  0  0  0  0
  151.0112  139.1925  154.7840 H   0  0  0  0  0  0  0  0  0  0  0  0
  150.7611  137.7805  153.7733 H   0  0  0  0  0  0  0  0  0  0  0  0
  152.0245  137.7731  155.0019 H   0  0  0  0  0  0  0  0  0  0  0  0
  146.4177  135.0654  150.7742 H   0  0  0  0  0  0  0  0  0  0  0  0
  146.6966  135.0333  152.4974 H   0  0  0  0  0  0  0  0  0  0  0  0
  1  2  1  0  0  0  0
  1 23  1  0  0  0  0
  1 24  1  0  0  0  0
  1 25  1  0  0  0  0
  2 22  1  0  0  0  0
  2  3  2  0  0  0  0
  3  4  1  0  0  0  0
  3 26  1  0  0  0  0
  4  5  1  0  0  0  0
  4 27  1  0  0  0  0
  4 28  1  0  0  0  0
  5  6  1  0  0  0  0
  5 29  1  0  0  0  0
  5 30  1  0  0  0  0
  6  7  1  0  0  0  0
  6 22  1  0  0  0  0
  7  8  2  0  0  0  0
  7  9  1  0  0  0  0
  9 10  1  0  0  0  0
  9 31  1  0  0  0  0
 10 11  1  0  0  0  0
 10 32  1  0  0  0  0
 10 33  1  0  0  0  0
 11 20  1  0  0  0  0
 11 12  2  0  0  0  0
 12 13  1  0  0  0  0
 12 34  1  0  0  0  0
 13 14  1  0  0  0  0
 13 17  1  0  0  0  0
 14 15  1  0  0  0  0
 14 16  1  0  0  0  0
 14 35  1  0  0  0  0
 15 36  1  0  0  0  0
 15 37  1  0  0  0  0
 15 38  1  0  0  0  0
 16 39  1  0  0  0  0
 16 40  1  0  0  0  0
 16 41  1  0  0  0  0
 17 18  2  0  0  0  0
 17 19  1  0  0  0  0
 19 20  1  0  0  0  0
 20 21  2  0  0  0  0
 22 42  1  0  0  0  0
 22 43  1  0  0  0  0
M  CHG  1  19  -1
M  END
> <s_m_source_file>
AV-unprocessed.smi

> <i_m_source_file_index>
5

> <i_lp_mmshare_version>
43012

> <i_f3d_flags>
0

> <s_epik_input>
W0NIM11DMT1bQ0hdW0NIMl1bQ0gyXU4oW0NIMl0xKUMoPU8pW05IXVtDSDJdYzJbY0hdbihbQ0hdKFtDSDNdKVtDSDNdKWMoPU8pW25IXWMyPU8=

> <s_epik_cmdline>
J2VwaWtfcHl0aG9uJywgJy1waCcsICc3LjAnLCAnLXRuJywgJzgnLCAnLW1hJywgJzIwMCcsICctbWV0YWxfYmluZGluZycsICctaW1hZScsICc8aW5maWxlLm1hZT4nLCAnLW9tYWUnLCAnPG91dGZpbGUubWFlPic=

> <r_lp_tautomer_probability>
0.999537

> <r_epik_Ionization_Penalty>
3.83548

> <r_epik_Ionization_Penalty_Charging>
1.96903e-07

> <r_epik_Ionization_Penalty_Neutral>
3.83548

> <r_epik_State_Penalty>
3.83512

> <r_epik_Charging_Adjusted_Penalty>
3.83512

> <i_epik_Tot_Q>
-1

> <i_epik_Tot_abs_Q>
1

> <r_epik_Metal_State_Penalty>
0.576105

> <b_epik_Metal_Only>
1

> <s_lp_Force_Field>
OPLS_2005

> <r_lp_Energy>
38.6384

> <b_lp_Chiralities_Consistent>
1

> <s_lp_Variant>
AV-unprocessed.smi:5-2

> <Gold.Version>
5.8.1

> <Gold.Id.Protein>
6NUR|6NUR_protein|mol2

> <Gold.PLP.Fitness>
43.9322

> <Gold.PLP.PLP>
-34.9183

> <Gold.PLP.part.hbond>
-2.3859

> <Gold.PLP.part.metal>
0.0000

> <Gold.PLP.part.buried>
-5.8833

> <Gold.PLP.part.nonpolar>
-28.4102

> <Gold.PLP.part.repulsive>
0.1157

> <Gold.PLP.ligand.clash>
0.0000

> <Gold.PLP.ligand.torsion>
0.4692

> <Gold.PLP.Chemscore.Hbond>
2.3077

> <Gold.PLP.Chemscore.CHOScore>
0.9892

> <Gold.PLP.Chemscore.Metal>
0.0000

> <Gold.Chemscore.Hbonds>
donor molecule, donor type, donor heavy atom, donor atom, acceptor molecule, acceptor atom, score
      L1  H     9    31       P1  7948  0.93
      P1  H  6896  6908       L1    19  1.03
      P1  H  6896  6909       L1    18  0.22
      L1  C    12    34       P1  7948  1.00

> <Gold.PLP.Chemscore.Internal.Correction>
0.0616

> <Gold.Rescore>
     Score         DG    S(hbond)    S(metal)    S(lipo)     H(rot)  DE(clash)    DE(int)     intcor
     11.89     -12.33       0.79        0.00      67.80       1.46       0.01       0.44       ----

> <Gold.Chemscore.Fitness>
11.8879

> <Gold.Chemscore.DG>
-12.3324

> <Gold.Chemscore.ZeroCoef>
-5.4800

> <Gold.Chemscore.Hbond>
0.7926

> <Gold.Chemscore.Metal>
0.0000

> <Gold.Chemscore.Lipo>
67.8009

> <Gold.Chemscore.Internal_Hbond>
0.0000

> <Gold.Chemscore.DEClash>
0.0088

> <Gold.Chemscore.DEInternal>
0.4356

> <Gold.Chemscore.Rot>
1.4561

> <Gold.Chemscore.Internal.Correction>
   9.000000E+99

> <Gold.Chemscore.Hbonds>
donor molecule, donor type, donor heavy atom, donor atom, acceptor molecule, acceptor atom, score
      L1  H     9    31       P1  7948  0.19
      P1  H  6896  6908       L1    19  0.15
      P1  H  6896  6909       L1    18  0.21

> <Gold.Chemscore.Hbond.Weighted>
-2.6473

> <Gold.Chemscore.Metal.Weighted>
-0.0000

> <Gold.Chemscore.Lipo.Weighted>
-7.9327

> <Gold.Chemscore.Internal_Hbond.Weighted>
0.0000

> <Gold.Chemscore.DEClash.Weighted>
0.0088

> <Gold.Chemscore.DEInternal.Weighted>
0.4356

> <Gold.Chemscore.Rot.Weighted>
3.7276

> <Gold.Chemscore.Internal.Correction.Weighted>
   9.000000E+99

> <Gold.Protein.RotatedTorsions>
[ 6907 6896 6895 6894 ] final  113.76 input  -60.11 | X-H torsion
[ 7974 7965 7964 7962 ] final  154.64 input  175.53 | X-H torsion
[ 8008 7997 7996 7995 ] final -169.10 input   59.86 | X-H torsion
[ 10167 10162 10161 10158 ] final  -71.02 input  -65.29 | X-H torsion
[ 10718 10713 10712 10709 ] final   54.66 input   66.30 | X-H torsion
[ 10763 10752 10751 10750 ] final  133.33 input  -60.55 | X-H torsion
[ 11005 11000 10999 10996 ] final  114.57 input  -57.11 | X-H torsion

> <Gold.Protein.ActiveResidues>
 VAL166  LYS551  ARG553  GLY616  TRP617  ASP618  TYR619  PRO620  LYS621  CYS622 
 ASP623  PHE694  ASN695  SER759  ASP760  ASP761  ALA762  ILE779  LEU786  VAL792 
 PHE793  MET794  SER795  GLU796  ALA797  LYS798  CYS799  TRP800  GLU811  SER814 

> <Gold.Protein.RotatedAtoms>
  152.4842  133.8330  159.7112 H   0  0  0  0  0  0  0  0  0  0  0  0  # atno 6907 bound_to 6896
  150.8915  133.7227  159.2910 H   0  0  0  0  0  0  0  0  0  0  0  0  # atno 6908 bound_to 6896
  151.4699  135.1049  159.9800 H   0  0  0  0  0  0  0  0  0  0  0  0  # atno 6909 bound_to 6896
  144.8076  139.6961  143.6155 H   0  0  0  0  0  0  0  0  0  0  0  0  # atno 7974 bound_to 7965
  155.9004  140.1040  157.1354 H   0  0  0  0  0  0  0  0  0  0  0  0  # atno 8008 bound_to 7997
  154.4025  140.1293  156.4493 H   0  0  0  0  0  0  0  0  0  0  0  0  # atno 8009 bound_to 7997
  155.7429  140.3466  155.5115 H   0  0  0  0  0  0  0  0  0  0  0  0  # atno 8010 bound_to 7997
  140.5306  143.2322  151.7268 H   0  0  0  0  0  0  0  0  0  0  0  0  # atno 10167 bound_to 10162
  157.5277  130.8608  149.8644 H   0  0  0  0  0  0  0  0  0  0  0  0  # atno 10718 bound_to 10713
  153.8053  135.3136  155.3395 H   0  0  0  0  0  0  0  0  0  0  0  0  # atno 10763 bound_to 10752
  154.8073  135.4690  154.0427 H   0  0  0  0  0  0  0  0  0  0  0  0  # atno 10764 bound_to 10752
  153.1788  135.6890  153.8594 H   0  0  0  0  0  0  0  0  0  0  0  0  # atno 10765 bound_to 10752
  139.8984  134.9570  156.6912 H   0  0  0  0  0  0  0  0  0  0  0  0  # atno 11005 bound_to 11000
  146.2369  139.5924  142.9517 LP  0  0  0  0  0  0  0  0  0  0  0  0  # atno 17320 bound_to 7965
  145.5402  141.0421  143.2335 LP  0  0  0  0  0  0  0  0  0  0  0  0  # atno 17321 bound_to 7965
  139.4953  144.4119  152.0071 LP  0  0  0  0  0  0  0  0  0  0  0  0  # atno 17342 bound_to 10162
  140.3221  144.3415  150.6007 LP  0  0  0  0  0  0  0  0  0  0  0  0  # atno 17343 bound_to 10162
  156.0399  130.3741  150.1463 LP  0  0  0  0  0  0  0  0  0  0  0  0  # atno 17370 bound_to 10713
  156.9649  130.9816  151.3471 LP  0  0  0  0  0  0  0  0  0  0  0  0  # atno 17371 bound_to 10713
  140.7223  133.9130  155.8155 LP  0  0  0  0  0  0  0  0  0  0  0  0  # atno 17394 bound_to 11000
  141.0218  134.0879  157.4112 LP  0  0  0  0  0  0  0  0  0  0  0  0  # atno 17395 bound_to 11000

$$$$
