AV-unprocessed.smi:1098|AV-procd|sdf|4754|dock2
  -GOLD-   22720 3293D 1   1.00000     0.00000
 Structure written by MMmdl.
 43 44  0  0  0  0  0  0  0  0  2 V2000
  152.0863  143.4844  158.7927 C   0  0  0  0  0  0  0  0  0  0  0  0
  151.3059  142.2519  158.3280 C   0  0  0  0  0  0  0  0  0  0  0  0
  150.9678  142.3116  156.5445 S   0  0  0  0  0  0  0  0  0  0  0  0
  150.5216  140.6783  156.0356 C   0  0  0  0  0  0  0  0  0  0  0  0
  150.3892  139.6489  156.9869 C   0  0  0  0  0  0  0  0  0  0  0  0
  150.0320  138.3638  156.5354 C   0  0  0  0  0  0  0  0  0  0  0  0
  149.8151  138.1608  155.1502 C   0  0  0  0  0  0  0  0  0  0  0  0
  149.4701  136.9115  154.5667 N   0  0  0  0  0  0  0  0  0  0  0  0
  149.0340  135.7943  155.1736 C   0  0  0  0  0  0  0  0  0  0  0  0
  148.8306  135.6709  156.3808 O   0  0  0  0  0  0  0  0  0  0  0  0
  148.8210  134.8121  154.2859 N   0  0  0  0  0  0  0  0  0  0  0  0
  148.3513  133.4657  154.6123 C   0  0  2  0  0  0  0  0  0  0  0  0
  148.4905  132.5352  153.3939 C   0  0  0  0  0  0  0  0  0  0  0  0
  147.4587  132.8577  152.2972 C   0  0  0  0  0  0  0  0  0  0  0  0
  146.0765  132.8267  152.8364 N   0  3  2  0  0  0  0  0  0  0  0  0
  145.0564  133.0098  151.7817 C   0  0  0  0  0  0  0  0  0  0  0  0
  145.8986  133.7735  153.9648 C   0  0  0  0  0  0  0  0  0  0  0  0
  146.8887  133.4692  155.1028 C   0  0  0  0  0  0  0  0  0  0  0  0
  149.9912  139.2643  154.2879 C   0  0  0  0  0  0  0  0  0  0  0  0
  150.3315  140.5001  154.7111 N   0  0  0  0  0  0  0  0  0  0  0  0
  152.2920  143.4331  159.8622 H   0  0  0  0  0  0  0  0  0  0  0  0
  151.5240  144.3998  158.6050 H   0  0  0  0  0  0  0  0  0  0  0  0
  153.0418  143.5637  158.2731 H   0  0  0  0  0  0  0  0  0  0  0  0
  151.8726  141.3473  158.5512 H   0  0  0  0  0  0  0  0  0  0  0  0
  150.3611  142.1851  158.8682 H   0  0  0  0  0  0  0  0  0  0  0  0
  150.5607  139.8364  158.0367 H   0  0  0  0  0  0  0  0  0  0  0  0
  149.9469  137.5652  157.2555 H   0  0  0  0  0  0  0  0  0  0  0  0
  149.5150  136.8812  153.5587 H   0  0  0  0  0  0  0  0  0  0  0  0
  149.0154  135.0046  153.3141 H   0  0  0  0  0  0  0  0  0  0  0  0
  148.9874  133.0747  155.4087 H   0  0  0  0  0  0  0  0  0  0  0  0
  149.5010  132.5910  152.9866 H   0  0  0  0  0  0  0  0  0  0  0  0
  148.3524  131.5024  153.7170 H   0  0  0  0  0  0  0  0  0  0  0  0
  147.6598  133.8383  151.8627 H   0  0  0  0  0  0  0  0  0  0  0  0
  147.5510  132.1307  151.4893 H   0  0  0  0  0  0  0  0  0  0  0  0
  145.1409  133.9953  151.3218 H   0  0  0  0  0  0  0  0  0  0  0  0
  144.0525  132.9103  152.1960 H   0  0  0  0  0  0  0  0  0  0  0  0
  145.1695  132.2567  151.0011 H   0  0  0  0  0  0  0  0  0  0  0  0
  146.0310  134.7969  153.6105 H   0  0  0  0  0  0  0  0  0  0  0  0
  144.8788  133.7006  154.3443 H   0  0  0  0  0  0  0  0  0  0  0  0
  146.6537  132.4908  155.5241 H   0  0  0  0  0  0  0  0  0  0  0  0
  146.7552  134.1837  155.9157 H   0  0  0  0  0  0  0  0  0  0  0  0
  149.8503  139.1546  153.2225 H   0  0  0  0  0  0  0  0  0  0  0  0
  145.9345  131.9000  153.2128 H   0  0  0  0  0  0  0  0  0  0  0  0
  1  2  1  0  0  0  0
  1 21  1  0  0  0  0
  1 22  1  0  0  0  0
  1 23  1  0  0  0  0
  2  3  1  0  0  0  0
  2 24  1  0  0  0  0
  2 25  1  0  0  0  0
  3  4  1  0  0  0  0
  4 20  1  0  0  0  0
  4  5  2  0  0  0  0
  5  6  1  0  0  0  0
  5 26  1  0  0  0  0
  6  7  2  0  0  0  0
  6 27  1  0  0  0  0
  7  8  1  0  0  0  0
  7 19  1  0  0  0  0
  8  9  1  0  0  0  0
  8 28  1  0  0  0  0
  9 10  2  0  0  0  0
  9 11  1  0  0  0  0
 11 12  1  0  0  0  0
 11 29  1  0  0  0  0
 12 18  1  0  0  0  0
 12 13  1  0  0  0  0
 12 30  1  0  0  0  0
 13 14  1  0  0  0  0
 13 31  1  0  0  0  0
 13 32  1  0  0  0  0
 14 15  1  0  0  0  0
 14 33  1  0  0  0  0
 14 34  1  0  0  0  0
 15 16  1  0  0  0  0
 15 17  1  0  0  0  0
 15 43  1  0  0  0  0
 16 35  1  0  0  0  0
 16 36  1  0  0  0  0
 16 37  1  0  0  0  0
 17 18  1  0  0  0  0
 17 38  1  0  0  0  0
 17 39  1  0  0  0  0
 18 40  1  0  0  0  0
 18 41  1  0  0  0  0
 19 20  2  0  0  0  0
 19 42  1  0  0  0  0
M  CHG  1  15   1
M  END
> <s_m_source_file>
AV-unprocessed.smi

> <i_m_source_file_index>
1098

> <i_lp_mmshare_version>
43012

> <i_f3d_flags>
0

> <s_epik_input>
W0NIM11bQ0gyXVNjMVtjSF1bY0hdYyhbY0hdbjEpW05IXUMoPU8pW05IXVtDSF0yW0NIMl1bQ0gyXU4oW0NIM10pW0NIMl1bQ0gyXTI=

> <s_epik_cmdline>
J2VwaWtfcHl0aG9uJywgJy1waCcsICc3LjAnLCAnLXRuJywgJzgnLCAnLW1hJywgJzIwMCcsICctbWV0YWxfYmluZGluZycsICctaW1hZScsICc8aW5maWxlLm1hZT4nLCAnLW9tYWUnLCAnPG91dGZpbGUubWFlPic=

> <r_lp_tautomer_probability>
1

> <r_epik_Ionization_Penalty>
0.00403107

> <r_epik_Ionization_Penalty_Charging>
0.00366825

> <r_epik_Ionization_Penalty_Neutral>
0.000362818

> <r_epik_State_Penalty>
-0

> <r_epik_Charging_Adjusted_Penalty>
0.00366825

> <i_epik_Tot_Q>
1

> <i_epik_Tot_abs_Q>
1

> <r_epik_Metal_State_Penalty>
-0

> <b_epik_Metal_Only>
0

> <s_lp_Force_Field>
OPLS_2005

> <r_lp_Energy>
17.2639

> <b_lp_Chiralities_Consistent>
1

> <s_lp_Variant>
AV-unprocessed.smi:1098-2

> <Gold.Version>
5.8.1

> <Gold.Id.Protein>
6NUR|6NUR_protein|mol2

> <Gold.PLP.Fitness>
40.8479

> <Gold.PLP.PLP>
-29.3073

> <Gold.PLP.part.hbond>
-3.0000

> <Gold.PLP.part.metal>
0.0000

> <Gold.PLP.part.buried>
-4.4215

> <Gold.PLP.part.nonpolar>
-22.7419

> <Gold.PLP.part.repulsive>
0.1318

> <Gold.PLP.ligand.clash>
0.0000

> <Gold.PLP.ligand.torsion>
0.2231

> <Gold.PLP.Chemscore.Hbond>
2.9920

> <Gold.PLP.Chemscore.CHOScore>
1.0000

> <Gold.PLP.Chemscore.Metal>
0.0000

> <Gold.Chemscore.Hbonds>
donor molecule, donor type, donor heavy atom, donor atom, acceptor molecule, acceptor atom, score
      L1  H     8    28       P1  7948  1.00
      L1  H    11    29       P1  7948  1.00
      P1  H  7989  7998       L1    20  0.93
      L1  C    19    42       P1  7957  1.00

> <Gold.PLP.Chemscore.Internal.Correction>
0.0108

> <Gold.Rescore>
     Score         DG    S(hbond)    S(metal)    S(lipo)     H(rot)  DE(clash)    DE(int)     intcor
     16.86     -18.41       2.08        0.00      79.57       1.30       0.09       1.47       ----

> <Gold.Chemscore.Fitness>
16.8591

> <Gold.Chemscore.DG>
-18.4138

> <Gold.Chemscore.ZeroCoef>
-5.4800

> <Gold.Chemscore.Hbond>
2.0845

> <Gold.Chemscore.Metal>
0.0000

> <Gold.Chemscore.Lipo>
79.5678

> <Gold.Chemscore.Internal_Hbond>
0.0000

> <Gold.Chemscore.DEClash>
0.0888

> <Gold.Chemscore.DEInternal>
1.4659

> <Gold.Chemscore.Rot>
1.3038

> <Gold.Chemscore.Internal.Correction>
   9.000000E+99

> <Gold.Chemscore.Hbonds>
donor molecule, donor type, donor heavy atom, donor atom, acceptor molecule, acceptor atom, score
      L1  H     8    28       P1  7948  0.83
      L1  H    11    29       P1  7948  0.24
      P1  H  7989  7998       L1    20  0.20

> <Gold.Chemscore.Hbond.Weighted>
-6.9622

> <Gold.Chemscore.Metal.Weighted>
-0.0000

> <Gold.Chemscore.Lipo.Weighted>
-9.3094

> <Gold.Chemscore.Internal_Hbond.Weighted>
0.0000

> <Gold.Chemscore.DEClash.Weighted>
0.0888

> <Gold.Chemscore.DEInternal.Weighted>
1.4659

> <Gold.Chemscore.Rot.Weighted>
3.3378

> <Gold.Chemscore.Internal.Correction.Weighted>
   9.000000E+99

> <Gold.Protein.RotatedTorsions>
[ 6907 6896 6895 6894 ] final   21.65 input  -60.11 | X-H torsion
[ 7974 7965 7964 7962 ] final    6.86 input  175.53 | X-H torsion
[ 8008 7997 7996 7995 ] final  -92.50 input   59.86 | X-H torsion
[ 10167 10162 10161 10158 ] final  -61.98 input  -65.29 | X-H torsion
[ 10718 10713 10712 10709 ] final -150.27 input   66.30 | X-H torsion
[ 10763 10752 10751 10750 ] final   46.05 input  -60.55 | X-H torsion
[ 11005 11000 10999 10996 ] final  -43.48 input  -57.11 | X-H torsion

> <Gold.Protein.ActiveResidues>
 VAL166  LYS551  ARG553  GLY616  TRP617  ASP618  TYR619  PRO620  LYS621  CYS622 
 ASP623  PHE694  ASN695  SER759  ASP760  ASP761  ALA762  ILE779  LEU786  VAL792 
 PHE793  MET794  SER795  GLU796  ALA797  LYS798  CYS799  TRP800  GLU811  SER814 

> <Gold.Protein.RotatedAtoms>
  151.9150  135.0323  160.0517 H   0  0  0  0  0  0  0  0  0  0  0  0  # atno 6907 bound_to 6896
  152.2248  133.5007  159.5191 H   0  0  0  0  0  0  0  0  0  0  0  0  # atno 6908 bound_to 6896
  150.7009  134.1212  159.4078 H   0  0  0  0  0  0  0  0  0  0  0  0  # atno 6909 bound_to 6896
  146.2431  140.0170  142.8401 H   0  0  0  0  0  0  0  0  0  0  0  0  # atno 7974 bound_to 7965
  154.7239  140.0508  157.0665 H   0  0  0  0  0  0  0  0  0  0  0  0  # atno 8008 bound_to 7997
  155.0391  140.3166  155.4712 H   0  0  0  0  0  0  0  0  0  0  0  0  # atno 8009 bound_to 7997
  156.2824  140.2136  156.5514 H   0  0  0  0  0  0  0  0  0  0  0  0  # atno 8010 bound_to 7997
  140.5970  143.2353  151.6014 H   0  0  0  0  0  0  0  0  0  0  0  0  # atno 10167 bound_to 10162
  156.4439  130.8135  151.2365 H   0  0  0  0  0  0  0  0  0  0  0  0  # atno 10718 bound_to 10713
  152.9816  135.6020  154.3537 H   0  0  0  0  0  0  0  0  0  0  0  0  # atno 10763 bound_to 10752
  154.3224  135.2769  155.2514 H   0  0  0  0  0  0  0  0  0  0  0  0  # atno 10764 bound_to 10752
  154.4675  135.5950  153.6354 H   0  0  0  0  0  0  0  0  0  0  0  0  # atno 10765 bound_to 10752
  141.0386  133.6789  156.2739 H   0  0  0  0  0  0  0  0  0  0  0  0  # atno 11005 bound_to 11000
  145.1276  140.9499  143.4563 LP  0  0  0  0  0  0  0  0  0  0  0  0  # atno 17320 bound_to 7965
  145.0419  139.3253  143.5972 LP  0  0  0  0  0  0  0  0  0  0  0  0  # atno 17321 bound_to 7965
  139.5265  144.3045  152.1046 LP  0  0  0  0  0  0  0  0  0  0  0  0  # atno 17342 bound_to 10162
  140.2219  144.4458  150.6338 LP  0  0  0  0  0  0  0  0  0  0  0  0  # atno 17343 bound_to 10162
  157.7505  131.0159  150.3524 LP  0  0  0  0  0  0  0  0  0  0  0  0  # atno 17370 bound_to 10713
  156.3888  130.3894  149.7046 LP  0  0  0  0  0  0  0  0  0  0  0  0  # atno 17371 bound_to 10713
  140.6275  134.5298  157.5555 LP  0  0  0  0  0  0  0  0  0  0  0  0  # atno 17394 bound_to 11000
  139.9259  134.8057  156.1070 LP  0  0  0  0  0  0  0  0  0  0  0  0  # atno 17395 bound_to 11000

$$$$
