AV-unprocessed.smi:1900|AV-procd|sdf|7715|dock1
  -GOLD-   22720 9453D 1   1.00000     0.00000
 Structure written by MMmdl.
 43 44  0  0  0  0  0  0  0  0  1 V2000
  152.3872  137.8930  155.7069 C   0  0  0  0  0  0  0  0  0  0  0  0
  151.7827  138.7893  154.6126 C   0  0  1  0  0  0  0  0  0  0  0  0
  150.3637  138.3615  154.1878 C   0  0  0  0  0  0  0  0  0  0  0  0
  149.3529  138.6857  155.1882 N   0  0  0  0  0  0  0  0  0  0  0  0
  148.0238  138.2583  154.7494 C   0  0  0  0  0  0  0  0  0  0  0  0
  147.4724  138.9823  153.5073 C   0  0  0  0  0  0  0  0  0  0  0  0
  146.1738  138.3528  152.9726 C   0  0  0  0  0  0  0  0  0  0  0  0
  146.4379  137.1271  152.2279 N   0  0  0  0  0  0  0  0  0  0  0  0
  145.4973  136.2698  151.8060 C   0  0  0  0  0  0  0  0  0  0  0  0
  144.2924  136.4324  151.9995 O   0  0  0  0  0  0  0  0  0  0  0  0
  146.0414  135.2297  151.1538 N   0  0  0  0  0  0  0  0  0  0  0  0
  145.3611  134.1273  150.5781 C   0  0  0  0  0  0  0  0  0  0  0  0
  145.8544  132.8273  150.2624 C   0  0  0  0  0  0  0  0  0  0  0  0
  144.9048  132.0707  149.7302 N   0  0  0  0  0  0  0  0  0  0  0  0
  143.8156  132.8711  149.7029 N   0  0  0  0  0  0  0  0  0  0  0  0
  144.0492  134.1306  150.2090 C   0  0  0  0  0  0  0  0  0  0  0  0
  149.4191  140.1133  155.4865 C   0  0  0  0  0  0  0  0  0  0  0  0
  150.8192  140.5347  155.9678 C   0  0  2  0  0  0  0  0  0  0  0  0
  150.9182  142.0467  156.1966 C   0  0  0  0  0  0  0  0  0  0  0  0
  151.7909  140.1671  154.9901 O   0  0  0  0  0  0  0  0  0  0  0  0
  142.9307  132.5467  149.3397 H   0  0  0  0  0  0  0  0  0  0  0  0
  152.4737  136.8633  155.3595 H   0  0  0  0  0  0  0  0  0  0  0  0
  151.7780  137.8804  156.6104 H   0  0  0  0  0  0  0  0  0  0  0  0
  153.3856  138.2340  155.9813 H   0  0  0  0  0  0  0  0  0  0  0  0
  152.4322  138.7075  153.7408 H   0  0  0  0  0  0  0  0  0  0  0  0
  150.1135  138.8579  153.2486 H   0  0  0  0  0  0  0  0  0  0  0  0
  150.3540  137.2909  153.9797 H   0  0  0  0  0  0  0  0  0  0  0  0
  148.0326  137.1837  154.5611 H   0  0  0  0  0  0  0  0  0  0  0  0
  147.3142  138.4106  155.5639 H   0  0  0  0  0  0  0  0  0  0  0  0
  147.3251  140.0416  153.7161 H   0  0  0  0  0  0  0  0  0  0  0  0
  148.2287  138.9446  152.7226 H   0  0  0  0  0  0  0  0  0  0  0  0
  145.5089  138.1119  153.8023 H   0  0  0  0  0  0  0  0  0  0  0  0
  145.6337  139.0591  152.3397 H   0  0  0  0  0  0  0  0  0  0  0  0
  147.4038  136.9154  152.0247 H   0  0  0  0  0  0  0  0  0  0  0  0
  147.0466  135.2232  151.0635 H   0  0  0  0  0  0  0  0  0  0  0  0
  146.8410  132.4088  150.3940 H   0  0  0  0  0  0  0  0  0  0  0  0
  143.2847  134.8919  150.2598 H   0  0  0  0  0  0  0  0  0  0  0  0
  149.1465  140.6890  154.6004 H   0  0  0  0  0  0  0  0  0  0  0  0
  148.6994  140.3720  156.2622 H   0  0  0  0  0  0  0  0  0  0  0  0
  151.0451  140.0323  156.9090 H   0  0  0  0  0  0  0  0  0  0  0  0
  150.2039  142.3760  156.9516 H   0  0  0  0  0  0  0  0  0  0  0  0
  150.7151  142.5996  155.2792 H   0  0  0  0  0  0  0  0  0  0  0  0
  151.9156  142.3236  156.5396 H   0  0  0  0  0  0  0  0  0  0  0  0
  1  2  1  0  0  0  0
  1 22  1  0  0  0  0
  1 23  1  0  0  0  0
  1 24  1  0  0  0  0
  2 20  1  0  0  0  0
  2  3  1  0  0  0  0
  2 25  1  0  0  0  0
  3  4  1  0  0  0  0
  3 26  1  0  0  0  0
  3 27  1  0  0  0  0
  4  5  1  0  0  0  0
  4 17  1  0  0  0  0
  5  6  1  0  0  0  0
  5 28  1  0  0  0  0
  5 29  1  0  0  0  0
  6  7  1  0  0  0  0
  6 30  1  0  0  0  0
  6 31  1  0  0  0  0
  7  8  1  0  0  0  0
  7 32  1  0  0  0  0
  7 33  1  0  0  0  0
  8  9  1  0  0  0  0
  8 34  1  0  0  0  0
  9 10  2  0  0  0  0
  9 11  1  0  0  0  0
 11 12  1  0  0  0  0
 11 35  1  0  0  0  0
 12 16  2  0  0  0  0
 12 13  1  0  0  0  0
 13 14  2  0  0  0  0
 13 36  1  0  0  0  0
 14 15  1  0  0  0  0
 15 21  1  0  0  0  0
 15 16  1  0  0  0  0
 16 37  1  0  0  0  0
 17 18  1  0  0  0  0
 17 38  1  0  0  0  0
 17 39  1  0  0  0  0
 18 19  1  0  0  0  0
 18 20  1  0  0  0  0
 18 40  1  0  0  0  0
 19 41  1  0  0  0  0
 19 42  1  0  0  0  0
 19 43  1  0  0  0  0
M  END
> <s_m_source_file>
AV-unprocessed.smi

> <i_m_source_file_index>
1900

> <i_lp_mmshare_version>
43012

> <i_f3d_flags>
0

> <s_epik_input>
W0NIM11bQ0BASF0xW0NIMl1OKFtDSDJdW0NASF0oTzEpW0NIM10pW0NIMl1bQ0gyXVtDSDJdW05IXUMoPU8pW05IXWMyW2NIXW5bbkhdW2NIXTI=

> <s_epik_cmdline>
J2VwaWtfcHl0aG9uJywgJy1waCcsICc3LjAnLCAnLXRuJywgJzgnLCAnLW1hJywgJzIwMCcsICctbWV0YWxfYmluZGluZycsICctaW1hZScsICc8aW5maWxlLm1hZT4nLCAnLW9tYWUnLCAnPG91dGZpbGUubWFlPic=

> <r_lp_tautomer_probability>
0.5

> <r_epik_Ionization_Penalty>
0.594715

> <r_epik_Ionization_Penalty_Charging>
0

> <r_epik_Ionization_Penalty_Neutral>
0.594715

> <r_epik_State_Penalty>
0.608529

> <r_epik_Charging_Adjusted_Penalty>
0.608529

> <i_epik_Tot_Q>
0

> <i_epik_Tot_abs_Q>
0

> <r_epik_Metal_State_Penalty>
0.608528

> <b_epik_Metal_Only>
0

> <s_lp_Force_Field>
OPLS_2005

> <r_lp_Energy>
28.5506

> <b_lp_Chiralities_Consistent>
1

> <s_lp_Variant>
AV-unprocessed.smi:1900-7

> <Gold.Version>
5.8.1

> <Gold.Id.Protein>
6NUR|6NUR_protein|mol2

> <Gold.PLP.Fitness>
44.4946

> <Gold.PLP.PLP>
-31.7363

> <Gold.PLP.part.hbond>
-3.0000

> <Gold.PLP.part.metal>
0.0000

> <Gold.PLP.part.buried>
-5.8700

> <Gold.PLP.part.nonpolar>
-24.4247

> <Gold.PLP.part.repulsive>
0.6890

> <Gold.PLP.ligand.clash>
0.0000

> <Gold.PLP.ligand.torsion>
0.2470

> <Gold.PLP.Chemscore.Hbond>
2.4885

> <Gold.PLP.Chemscore.CHOScore>
1.9144

> <Gold.PLP.Chemscore.Metal>
0.0000

> <Gold.Chemscore.Hbonds>
donor molecule, donor type, donor heavy atom, donor atom, acceptor molecule, acceptor atom, score
      L1  H     8    34       P1  7948  1.00
      L1  H    11    35       P1  7948  0.41
      P1  H  7989  7998       L1    20  0.91
      L1  C    13    36       P1 10747  0.74
      L1  C    16    37       P1 10186  0.84

> <Gold.PLP.Chemscore.Internal.Correction>
0.0434

> <Gold.Rescore>
     Score         DG    S(hbond)    S(metal)    S(lipo)     H(rot)  DE(clash)    DE(int)     intcor
     14.25     -15.81       1.85        0.00      76.51       1.88       0.04       1.52       ----

> <Gold.Chemscore.Fitness>
14.2496

> <Gold.Chemscore.DG>
-15.8100

> <Gold.Chemscore.ZeroCoef>
-5.4800

> <Gold.Chemscore.Hbond>
1.8535

> <Gold.Chemscore.Metal>
0.0000

> <Gold.Chemscore.Lipo>
76.5125

> <Gold.Chemscore.Internal_Hbond>
0.0000

> <Gold.Chemscore.DEClash>
0.0416

> <Gold.Chemscore.DEInternal>
1.5189

> <Gold.Chemscore.Rot>
1.8799

> <Gold.Chemscore.Internal.Correction>
   9.000000E+99

> <Gold.Chemscore.Hbonds>
donor molecule, donor type, donor heavy atom, donor atom, acceptor molecule, acceptor atom, score
      L1  H     8    34       P1  7948  1.00
      L1  H    11    35       P1  7948  0.29
      P1  H  7989  7998       L1    20  0.21

> <Gold.Chemscore.Hbond.Weighted>
-6.1906

> <Gold.Chemscore.Metal.Weighted>
-0.0000

> <Gold.Chemscore.Lipo.Weighted>
-8.9520

> <Gold.Chemscore.Internal_Hbond.Weighted>
0.0000

> <Gold.Chemscore.DEClash.Weighted>
0.0416

> <Gold.Chemscore.DEInternal.Weighted>
1.5189

> <Gold.Chemscore.Rot.Weighted>
4.8126

> <Gold.Chemscore.Internal.Correction.Weighted>
   9.000000E+99

> <Gold.Protein.RotatedTorsions>
[ 6907 6896 6895 6894 ] final   36.69 input  -60.11 | X-H torsion
[ 7974 7965 7964 7962 ] final -114.20 input  175.53 | X-H torsion
[ 8008 7997 7996 7995 ] final -131.73 input   59.86 | X-H torsion
[ 10167 10162 10161 10158 ] final -133.47 input  -65.29 | X-H torsion
[ 10718 10713 10712 10709 ] final  -77.06 input   66.30 | X-H torsion
[ 10763 10752 10751 10750 ] final -176.35 input  -60.55 | X-H torsion
[ 11005 11000 10999 10996 ] final -154.26 input  -57.11 | X-H torsion

> <Gold.Protein.ActiveResidues>
 VAL166  LYS551  ARG553  GLY616  TRP617  ASP618  TYR619  PRO620  LYS621  CYS622 
 ASP623  PHE694  ASN695  SER759  ASP760  ASP761  ALA762  ILE779  LEU786  VAL792 
 PHE793  MET794  SER795  GLU796  ALA797  LYS798  CYS799  TRP800  GLU811  SER814 

> <Gold.Protein.RotatedAtoms>
  152.1331  134.9120  160.0557 H   0  0  0  0  0  0  0  0  0  0  0  0  # atno 6907 bound_to 6896
  152.0216  133.3896  159.4269 H   0  0  0  0  0  0  0  0  0  0  0  0  # atno 6908 bound_to 6896
  150.6858  134.3541  159.4965 H   0  0  0  0  0  0  0  0  0  0  0  0  # atno 6909 bound_to 6896
  145.1230  140.8680  143.3803 H   0  0  0  0  0  0  0  0  0  0  0  0  # atno 7974 bound_to 7965
  155.3171  140.0460  157.3037 H   0  0  0  0  0  0  0  0  0  0  0  0  # atno 8008 bound_to 7997
  154.5401  140.2285  155.8623 H   0  0  0  0  0  0  0  0  0  0  0  0  # atno 8009 bound_to 7997
  156.1872  140.3059  155.9268 H   0  0  0  0  0  0  0  0  0  0  0  0  # atno 8010 bound_to 7997
  139.8979  143.6643  152.2600 H   0  0  0  0  0  0  0  0  0  0  0  0  # atno 10167 bound_to 10162
  156.0156  130.4481  150.3287 H   0  0  0  0  0  0  0  0  0  0  0  0  # atno 10718 bound_to 10713
  154.5734  135.2830  155.0804 H   0  0  0  0  0  0  0  0  0  0  0  0  # atno 10763 bound_to 10752
  154.2168  135.6398  153.5136 H   0  0  0  0  0  0  0  0  0  0  0  0  # atno 10764 bound_to 10752
  153.0065  135.5505  154.6365 H   0  0  0  0  0  0  0  0  0  0  0  0  # atno 10765 bound_to 10752
  140.6993  134.3955  157.5211 H   0  0  0  0  0  0  0  0  0  0  0  0  # atno 11005 bound_to 11000
  145.0720  139.3025  143.5827 LP  0  0  0  0  0  0  0  0  0  0  0  0  # atno 17320 bound_to 7965
  146.3519  140.0197  142.8659 LP  0  0  0  0  0  0  0  0  0  0  0  0  # atno 17321 bound_to 7965
  139.7051  144.7629  151.1207 LP  0  0  0  0  0  0  0  0  0  0  0  0  # atno 17342 bound_to 10162
  140.7713  143.5405  150.9318 LP  0  0  0  0  0  0  0  0  0  0  0  0  # atno 17343 bound_to 10162
  157.1386  131.0290  151.2938 LP  0  0  0  0  0  0  0  0  0  0  0  0  # atno 17370 bound_to 10713
  157.4491  130.7588  149.7135 LP  0  0  0  0  0  0  0  0  0  0  0  0  # atno 17371 bound_to 10713
  139.8901  134.8813  156.2386 LP  0  0  0  0  0  0  0  0  0  0  0  0  # atno 17394 bound_to 11000
  141.0177  133.7059  156.1216 LP  0  0  0  0  0  0  0  0  0  0  0  0  # atno 17395 bound_to 11000

$$$$
