AV-unprocessed.smi:922|AV-procd|sdf|4174|dock1
  -GOLD-   22720 2 83D 1   1.00000     0.00000
 Structure written by MMmdl.
 32 33  0  0  0  0  0  0  0  0  2 V2000
  154.0460  141.4003  160.4728 C   0  0  0  0  0  0  0  0  0  0  0  0
  153.1446  142.1234  159.4673 C   0  0  1  0  0  0  0  0  0  0  0  0
  151.8671  141.3199  159.1607 C   0  0  0  0  0  0  0  0  0  0  0  0
  150.9812  142.0865  158.2948 N   0  0  0  0  0  0  0  0  0  0  0  0
  150.4356  141.6293  157.0942 C   0  0  0  0  0  0  0  0  0  0  0  0
  151.3157  140.9605  156.1039 C   0  0  0  0  0  0  0  0  0  0  0  0
  150.8894  140.5194  154.9878 N   0  0  0  0  0  0  0  0  0  0  0  0
  149.4995  140.6553  154.6181 N   0  5  0  0  0  0  0  0  0  0  0  0
  148.6166  141.2492  155.4763 C   0  0  0  0  0  0  0  0  0  0  0  0
  147.4245  141.3731  155.1996 O   0  0  0  0  0  0  0  0  0  0  0  0
  149.1188  141.7506  156.7627 C   0  0  0  0  0  0  0  0  0  0  0  0
  147.9568  142.4428  157.8480 Cl  0  0  0  0  0  0  0  0  0  0  0  0
  150.6324  143.3637  158.9056 C   0  0  0  0  0  0  0  0  0  0  0  0
  151.8990  144.1874  159.2323 C   0  0  0  0  0  0  0  0  0  0  0  0
  152.6010  144.7004  157.9564 C   0  0  0  0  0  0  0  0  0  0  0  0
  151.5231  145.3847  160.1188 C   0  0  0  0  0  0  0  0  0  0  0  0
  152.7864  143.3889  160.0247 O   0  0  0  0  0  0  0  0  0  0  0  0
  154.3630  140.4308  160.0877 H   0  0  0  0  0  0  0  0  0  0  0  0
  153.5291  141.2333  161.4182 H   0  0  0  0  0  0  0  0  0  0  0  0
  154.9427  141.9844  160.6816 H   0  0  0  0  0  0  0  0  0  0  0  0
  153.7193  142.2775  158.5550 H   0  0  0  0  0  0  0  0  0  0  0  0
  152.1122  140.3582  158.7101 H   0  0  0  0  0  0  0  0  0  0  0  0
  151.3361  141.0961  160.0868 H   0  0  0  0  0  0  0  0  0  0  0  0
  152.3676  140.8688  156.3864 H   0  0  0  0  0  0  0  0  0  0  0  0
  149.9805  143.9399  158.2479 H   0  0  0  0  0  0  0  0  0  0  0  0
  150.0631  143.1649  159.8146 H   0  0  0  0  0  0  0  0  0  0  0  0
  151.9608  145.3958  157.4129 H   0  0  0  0  0  0  0  0  0  0  0  0
  152.8499  143.8965  157.2644 H   0  0  0  0  0  0  0  0  0  0  0  0
  153.5252  145.2244  158.2001 H   0  0  0  0  0  0  0  0  0  0  0  0
  150.8278  146.0526  159.6091 H   0  0  0  0  0  0  0  0  0  0  0  0
  152.4041  145.9669  160.3906 H   0  0  0  0  0  0  0  0  0  0  0  0
  151.0488  145.0570  161.0443 H   0  0  0  0  0  0  0  0  0  0  0  0
  1  2  1  0  0  0  0
  1 18  1  0  0  0  0
  1 19  1  0  0  0  0
  1 20  1  0  0  0  0
  2 17  1  0  0  0  0
  2  3  1  0  0  0  0
  2 21  1  0  0  0  0
  3  4  1  0  0  0  0
  3 22  1  0  0  0  0
  3 23  1  0  0  0  0
  4  5  1  0  0  0  0
  4 13  1  0  0  0  0
  5 11  2  0  0  0  0
  5  6  1  0  0  0  0
  6  7  2  0  0  0  0
  6 24  1  0  0  0  0
  7  8  1  0  0  0  0
  8  9  1  0  0  0  0
  9 10  2  0  0  0  0
  9 11  1  0  0  0  0
 11 12  1  0  0  0  0
 13 14  1  0  0  0  0
 13 25  1  0  0  0  0
 13 26  1  0  0  0  0
 14 15  1  0  0  0  0
 14 16  1  0  0  0  0
 14 17  1  0  0  0  0
 15 27  1  0  0  0  0
 15 28  1  0  0  0  0
 15 29  1  0  0  0  0
 16 30  1  0  0  0  0
 16 31  1  0  0  0  0
 16 32  1  0  0  0  0
M  CHG  1   8  -1
M  END
> <s_m_source_file>
AV-unprocessed.smi

> <i_m_source_file_index>
922

> <i_lp_mmshare_version>
43012

> <i_f3d_flags>
0

> <s_epik_input>
W0NIM11bQ0BASF0oTzEpW0NIMl1OKFtDSDJdQzEoW0NIM10pW0NIM10pYzJbY0hdbltuSF1jKD1PKWMyQ2w=

> <s_epik_cmdline>
J2VwaWtfcHl0aG9uJywgJy1waCcsICc3LjAnLCAnLXRuJywgJzgnLCAnLW1hJywgJzIwMCcsICctbWV0YWxfYmluZGluZycsICctaW1hZScsICc8aW5maWxlLm1hZT4nLCAnLW9tYWUnLCAnPG91dGZpbGUubWFlPic=

> <r_lp_tautomer_probability>
1

> <r_epik_Ionization_Penalty>
2.48086

> <r_epik_Ionization_Penalty_Charging>
0.00187014

> <r_epik_Ionization_Penalty_Neutral>
2.47899

> <r_epik_State_Penalty>
0.0455822

> <r_epik_Charging_Adjusted_Penalty>
0.0474524

> <i_epik_Tot_Q>
-1

> <i_epik_Tot_abs_Q>
1

> <r_epik_Metal_State_Penalty>
0.000768086

> <b_epik_Metal_Only>
0

> <s_lp_Force_Field>
OPLS_2005

> <r_lp_Energy>
41.3096

> <b_lp_Chiralities_Consistent>
1

> <s_lp_Variant>
AV-unprocessed.smi:922-2

> <Gold.Version>
5.8.1

> <Gold.Id.Protein>
6NUR|6NUR_protein|mol2

> <Gold.PLP.Fitness>
41.1988

> <Gold.PLP.PLP>
-38.7026

> <Gold.PLP.part.hbond>
-1.3400

> <Gold.PLP.part.metal>
0.0000

> <Gold.PLP.part.buried>
-5.7883

> <Gold.PLP.part.nonpolar>
-31.6453

> <Gold.PLP.part.repulsive>
0.2707

> <Gold.PLP.ligand.clash>
0.0000

> <Gold.PLP.ligand.torsion>
0.7371

> <Gold.PLP.Chemscore.Hbond>
1.0000

> <Gold.PLP.Chemscore.CHOScore>
0.0000

> <Gold.PLP.Chemscore.Metal>
0.0000

> <Gold.Chemscore.Hbonds>
donor molecule, donor type, donor heavy atom, donor atom, acceptor molecule, acceptor atom, score
      P1  H  7989  7998       L1     7  1.00

> <Gold.PLP.Chemscore.Internal.Correction>
0.9704

> <Gold.Rescore>
     Score         DG    S(hbond)    S(metal)    S(lipo)     H(rot)  DE(clash)    DE(int)     intcor
     16.93     -17.91       0.83        0.00      82.59       0.00       0.06       0.92       ----

> <Gold.Chemscore.Fitness>
16.9290

> <Gold.Chemscore.DG>
-17.9066

> <Gold.Chemscore.ZeroCoef>
-5.4800

> <Gold.Chemscore.Hbond>
0.8274

> <Gold.Chemscore.Metal>
0.0000

> <Gold.Chemscore.Lipo>
82.5912

> <Gold.Chemscore.Internal_Hbond>
0.0000

> <Gold.Chemscore.DEClash>
0.0621

> <Gold.Chemscore.DEInternal>
0.9154

> <Gold.Chemscore.Rot>
0.0000

> <Gold.Chemscore.Internal.Correction>
   9.000000E+99

> <Gold.Chemscore.Hbonds>
donor molecule, donor type, donor heavy atom, donor atom, acceptor molecule, acceptor atom, score
      P1  H  7989  7998       L1     7  0.24

> <Gold.Chemscore.Hbond.Weighted>
-2.7634

> <Gold.Chemscore.Metal.Weighted>
-0.0000

> <Gold.Chemscore.Lipo.Weighted>
-9.6632

> <Gold.Chemscore.Internal_Hbond.Weighted>
0.0000

> <Gold.Chemscore.DEClash.Weighted>
0.0621

> <Gold.Chemscore.DEInternal.Weighted>
0.9154

> <Gold.Chemscore.Rot.Weighted>
0.0000

> <Gold.Chemscore.Internal.Correction.Weighted>
   9.000000E+99

> <Gold.Protein.RotatedTorsions>
[ 6907 6896 6895 6894 ] final  165.69 input  -60.11 | X-H torsion
[ 7974 7965 7964 7962 ] final  178.23 input  175.53 | X-H torsion
[ 8008 7997 7996 7995 ] final   86.85 input   59.86 | X-H torsion
[ 10167 10162 10161 10158 ] final   95.25 input  -65.29 | X-H torsion
[ 10718 10713 10712 10709 ] final  -94.51 input   66.30 | X-H torsion
[ 10763 10752 10751 10750 ] final -172.10 input  -60.55 | X-H torsion
[ 11005 11000 10999 10996 ] final   67.37 input  -57.11 | X-H torsion

> <Gold.Protein.ActiveResidues>
 VAL166  LYS551  ARG553  GLY616  TRP617  ASP618  TYR619  PRO620  LYS621  CYS622 
 ASP623  PHE694  ASN695  SER759  ASP760  ASP761  ALA762  ILE779  LEU786  VAL792 
 PHE793  MET794  SER795  GLU796  ALA797  LYS798  CYS799  TRP800  GLU811  SER814 

> <Gold.Protein.RotatedAtoms>
  151.8905  133.3515  159.3796 H   0  0  0  0  0  0  0  0  0  0  0  0  # atno 6907 bound_to 6896
  150.7104  134.4928  159.5533 H   0  0  0  0  0  0  0  0  0  0  0  0  # atno 6908 bound_to 6896
  152.2498  134.8145  160.0498 H   0  0  0  0  0  0  0  0  0  0  0  0  # atno 6909 bound_to 6896
  144.7159  140.0366  143.6438 H   0  0  0  0  0  0  0  0  0  0  0  0  # atno 7974 bound_to 7965
  155.9679  140.3388  155.6549 H   0  0  0  0  0  0  0  0  0  0  0  0  # atno 8008 bound_to 7997
  155.6712  140.0727  157.2537 H   0  0  0  0  0  0  0  0  0  0  0  0  # atno 8009 bound_to 7997
  154.4159  140.1691  156.1869 H   0  0  0  0  0  0  0  0  0  0  0  0  # atno 8010 bound_to 7997
  139.8006  144.6815  150.9770 H   0  0  0  0  0  0  0  0  0  0  0  0  # atno 10167 bound_to 10162
  156.0028  130.5071  150.5937 H   0  0  0  0  0  0  0  0  0  0  0  0  # atno 10718 bound_to 10713
  154.6231  135.2877  155.0303 H   0  0  0  0  0  0  0  0  0  0  0  0  # atno 10763 bound_to 10752
  154.1490  135.6506  153.4963 H   0  0  0  0  0  0  0  0  0  0  0  0  # atno 10764 bound_to 10752
  153.0245  135.5351  154.7029 H   0  0  0  0  0  0  0  0  0  0  0  0  # atno 10765 bound_to 10752
  139.9775  134.6798  156.0326 H   0  0  0  0  0  0  0  0  0  0  0  0  # atno 11005 bound_to 11000
  146.0058  139.3129  143.0900 LP  0  0  0  0  0  0  0  0  0  0  0  0  # atno 17320 bound_to 7965
  145.8739  140.9403  143.0636 LP  0  0  0  0  0  0  0  0  0  0  0  0  # atno 17321 bound_to 7965
  140.7820  143.4286  151.0730 LP  0  0  0  0  0  0  0  0  0  0  0  0  # atno 17342 bound_to 10162
  139.7958  143.8154  152.3157 LP  0  0  0  0  0  0  0  0  0  0  0  0  # atno 17343 bound_to 10162
  157.3798  131.0779  151.1487 LP  0  0  0  0  0  0  0  0  0  0  0  0  # atno 17370 bound_to 10713
  157.2213  130.6482  149.5812 LP  0  0  0  0  0  0  0  0  0  0  0  0  # atno 17371 bound_to 10713
  141.1450  133.6557  156.3842 LP  0  0  0  0  0  0  0  0  0  0  0  0  # atno 17394 bound_to 11000
  140.5165  134.6345  157.5303 LP  0  0  0  0  0  0  0  0  0  0  0  0  # atno 17395 bound_to 11000

$$$$
