AV-unprocessed.smi:3068|AV-procd|sdf|11703|dock6
  -GOLD-   2272017103D 1   1.00000     0.00000
 Structure written by MMmdl.
 40 42  0  0  0  0  0  0  0  0  2 V2000
  151.5080  137.2405  154.3988 N   0  0  0  0  0  0  0  0  0  0  0  0
  150.8055  138.1590  154.4428 C   0  0  0  0  0  0  0  0  0  0  0  0
  149.9219  139.3167  154.4985 C   0  0  0  0  0  0  0  0  0  0  0  0
  150.4634  140.4728  154.9469 N   0  0  0  0  0  0  0  0  0  0  0  0
  149.6556  141.5527  155.0062 C   0  0  0  0  0  0  0  0  0  0  0  0
  148.3034  141.4837  154.6189 C   0  0  0  0  0  0  0  0  0  0  0  0
  147.7543  140.3345  154.1715 N   0  0  0  0  0  0  0  0  0  0  0  0
  148.5552  139.2412  154.1068 C   0  0  0  0  0  0  0  0  0  0  0  0
  147.9973  138.0354  153.6421 N   0  0  0  0  0  0  0  0  0  0  0  0
  146.5597  137.8665  153.4647 C   0  0  0  0  0  0  0  0  0  0  0  0
  146.2096  136.5947  152.6736 C   0  0  1  0  0  0  0  0  0  0  0  0
  146.1002  135.3660  153.6031 C   0  0  0  0  0  0  0  0  0  0  0  0
  145.6422  134.1633  152.8660 N   0  3  2  0  0  0  0  0  0  0  0  0
  146.7107  133.5272  152.0480 C   0  0  0  0  0  0  0  0  0  0  0  0
  146.2035  132.2499  151.3632 C   0  0  0  0  0  0  0  0  0  0  0  0
  144.9754  132.5522  150.4977 C   0  0  0  0  0  0  0  0  0  0  0  0
  143.8824  133.2051  151.3545 C   0  0  0  0  0  0  0  0  0  0  0  0
  144.3892  134.4498  152.1137 C   0  0  2  0  0  0  0  0  0  0  0  0
  144.5606  135.6991  151.2240 C   0  0  0  0  0  0  0  0  0  0  0  0
  144.9523  136.8004  152.0354 O   0  0  0  0  0  0  0  0  0  0  0  0
  150.0899  142.4746  155.3640 H   0  0  0  0  0  0  0  0  0  0  0  0
  147.6615  142.3507  154.6680 H   0  0  0  0  0  0  0  0  0  0  0  0
  148.5929  137.2277  153.5232 H   0  0  0  0  0  0  0  0  0  0  0  0
  146.0738  137.8522  154.4409 H   0  0  0  0  0  0  0  0  0  0  0  0
  146.1701  138.7436  152.9474 H   0  0  0  0  0  0  0  0  0  0  0  0
  146.9761  136.4179  151.9183 H   0  0  0  0  0  0  0  0  0  0  0  0
  147.0532  135.1649  154.0940 H   0  0  0  0  0  0  0  0  0  0  0  0
  145.3818  135.5727  154.3977 H   0  0  0  0  0  0  0  0  0  0  0  0
  147.0826  134.2208  151.2937 H   0  0  0  0  0  0  0  0  0  0  0  0
  147.5571  133.2815  152.6905 H   0  0  0  0  0  0  0  0  0  0  0  0
  146.9943  131.8162  150.7503 H   0  0  0  0  0  0  0  0  0  0  0  0
  145.9501  131.5029  152.1165 H   0  0  0  0  0  0  0  0  0  0  0  0
  145.2524  133.2108  149.6738 H   0  0  0  0  0  0  0  0  0  0  0  0
  144.5987  131.6331  150.0475 H   0  0  0  0  0  0  0  0  0  0  0  0
  143.0230  133.4635  150.7348 H   0  0  0  0  0  0  0  0  0  0  0  0
  143.5217  132.4725  152.0780 H   0  0  0  0  0  0  0  0  0  0  0  0
  143.6278  134.6962  152.8556 H   0  0  0  0  0  0  0  0  0  0  0  0
  145.2897  135.5392  150.4288 H   0  0  0  0  0  0  0  0  0  0  0  0
  143.6162  135.9471  150.7391 H   0  0  0  0  0  0  0  0  0  0  0  0
  145.4001  133.4766  153.5661 H   0  0  0  0  0  0  0  0  0  0  0  0
  1  2  3  0  0  0  0
  2  3  1  0  0  0  0
  3  8  1  0  0  0  0
  3  4  2  0  0  0  0
  4  5  1  0  0  0  0
  5  6  2  0  0  0  0
  5 21  1  0  0  0  0
  6  7  1  0  0  0  0
  6 22  1  0  0  0  0
  7  8  2  0  0  0  0
  8  9  1  0  0  0  0
  9 10  1  0  0  0  0
  9 23  1  0  0  0  0
 10 11  1  0  0  0  0
 10 24  1  0  0  0  0
 10 25  1  0  0  0  0
 11 20  1  0  0  0  0
 11 12  1  0  0  0  0
 11 26  1  0  0  0  0
 12 13  1  0  0  0  0
 12 27  1  0  0  0  0
 12 28  1  0  0  0  0
 13 18  1  0  0  0  0
 13 14  1  0  0  0  0
 13 40  1  0  0  0  0
 14 15  1  0  0  0  0
 14 29  1  0  0  0  0
 14 30  1  0  0  0  0
 15 16  1  0  0  0  0
 15 31  1  0  0  0  0
 15 32  1  0  0  0  0
 16 17  1  0  0  0  0
 16 33  1  0  0  0  0
 16 34  1  0  0  0  0
 17 18  1  0  0  0  0
 17 35  1  0  0  0  0
 17 36  1  0  0  0  0
 18 19  1  0  0  0  0
 18 37  1  0  0  0  0
 19 20  1  0  0  0  0
 19 38  1  0  0  0  0
 19 39  1  0  0  0  0
M  CHG  1  13   1
M  END
> <s_m_source_file>
AV-unprocessed.smi

> <i_m_source_file_index>
3068

> <i_lp_mmshare_version>
43012

> <i_f3d_flags>
0

> <s_epik_input>
TiNDYzFuW2NIXVtjSF1uYzFbTkhdW0NIMl1bQ0BIXShbQ0gyXTIpT1tDSDJdW0NAQEhdKE4yMylbQ0gyXVtDSDJdW0NIMl1bQ0gyXTM=

> <s_epik_cmdline>
J2VwaWtfcHl0aG9uJywgJy1waCcsICc3LjAnLCAnLXRuJywgJzgnLCAnLW1hJywgJzIwMCcsICctbWV0YWxfYmluZGluZycsICctaW1hZScsICc8aW5maWxlLm1hZT4nLCAnLW9tYWUnLCAnPG91dGZpbGUubWFlPic=

> <r_epik_Ionization_Penalty>
0.0804321

> <r_epik_Ionization_Penalty_Charging>
0.0803403

> <r_epik_Ionization_Penalty_Neutral>
9.17277e-05

> <r_epik_State_Penalty>
0.0711481

> <r_epik_Charging_Adjusted_Penalty>
0.151488

> <i_epik_Tot_Q>
1

> <i_epik_Tot_abs_Q>
1

> <r_epik_Metal_State_Penalty>
0.0711481

> <b_epik_Metal_Only>
0

> <s_lp_Force_Field>
OPLS_2005

> <r_lp_Energy>
39.7851

> <b_lp_Chiralities_Consistent>
1

> <s_lp_Variant>
AV-unprocessed.smi:3068-6

> <Gold.Version>
5.8.1

> <Gold.Id.Protein>
6NUR|6NUR_protein|mol2

> <Gold.PLP.Fitness>
41.1307

> <Gold.PLP.PLP>
-31.7580

> <Gold.PLP.part.hbond>
-2.7675

> <Gold.PLP.part.metal>
0.0000

> <Gold.PLP.part.buried>
-3.6104

> <Gold.PLP.part.nonpolar>
-26.2662

> <Gold.PLP.part.repulsive>
1.1337

> <Gold.PLP.ligand.clash>
0.0000

> <Gold.PLP.ligand.torsion>
0.3992

> <Gold.PLP.Chemscore.Hbond>
2.2913

> <Gold.PLP.Chemscore.CHOScore>
1.0974

> <Gold.PLP.Chemscore.Metal>
0.0000

> <Gold.Chemscore.Hbonds>
donor molecule, donor type, donor heavy atom, donor atom, acceptor molecule, acceptor atom, score
      L1  H     9    23       P1  7948  0.56
      P1  H  7989  7998       L1     4  1.00
      P1  H 10752 10763       L1     1  0.75
      L1  C     5    21       P1  8028  0.86
      L1  C     6    22       P1  8028  0.21

> <Gold.PLP.Chemscore.Internal.Correction>
0.0053

> <Gold.Rescore>
     Score         DG    S(hbond)    S(metal)    S(lipo)     H(rot)  DE(clash)    DE(int)     intcor
     13.84     -15.50       1.57        0.00      69.57       1.32       1.29       0.38       ----

> <Gold.Chemscore.Fitness>
13.8352

> <Gold.Chemscore.DG>
-15.4981

> <Gold.Chemscore.ZeroCoef>
-5.4800

> <Gold.Chemscore.Hbond>
1.5737

> <Gold.Chemscore.Metal>
0.0000

> <Gold.Chemscore.Lipo>
69.5673

> <Gold.Chemscore.Internal_Hbond>
0.0000

> <Gold.Chemscore.DEClash>
1.2850

> <Gold.Chemscore.DEInternal>
0.3779

> <Gold.Chemscore.Rot>
1.3193

> <Gold.Chemscore.Internal.Correction>
   9.000000E+99

> <Gold.Chemscore.Hbonds>
donor molecule, donor type, donor heavy atom, donor atom, acceptor molecule, acceptor atom, score
      L1  H     9    23       P1  7948  0.55
      P1  H  7989  7998       L1     4  0.10
      P1  H 10752 10763       L1     1  0.74

> <Gold.Chemscore.Hbond.Weighted>
-5.2561

> <Gold.Chemscore.Metal.Weighted>
-0.0000

> <Gold.Chemscore.Lipo.Weighted>
-8.1394

> <Gold.Chemscore.Internal_Hbond.Weighted>
0.0000

> <Gold.Chemscore.DEClash.Weighted>
1.2850

> <Gold.Chemscore.DEInternal.Weighted>
0.3779

> <Gold.Chemscore.Rot.Weighted>
3.3774

> <Gold.Chemscore.Internal.Correction.Weighted>
   9.000000E+99

> <Gold.Protein.RotatedTorsions>
[ 6907 6896 6895 6894 ] final   73.77 input  -60.11 | X-H torsion
[ 7974 7965 7964 7962 ] final -127.59 input  175.53 | X-H torsion
[ 8008 7997 7996 7995 ] final   58.96 input   59.86 | X-H torsion
[ 10167 10162 10161 10158 ] final   81.02 input  -65.29 | X-H torsion
[ 10718 10713 10712 10709 ] final   60.27 input   66.30 | X-H torsion
[ 10763 10752 10751 10750 ] final   41.85 input  -60.55 | X-H torsion
[ 11005 11000 10999 10996 ] final  -71.23 input  -57.11 | X-H torsion

> <Gold.Protein.ActiveResidues>
 VAL166  LYS551  ARG553  GLY616  TRP617  ASP618  TYR619  PRO620  LYS621  CYS622 
 ASP623  PHE694  ASN695  SER759  ASP760  ASP761  ALA762  ILE779  LEU786  VAL792 
 PHE793  MET794  SER795  GLU796  ALA797  LYS798  CYS799  TRP800  GLU811  SER814 

> <Gold.Protein.RotatedAtoms>
  152.4941  134.4372  159.9531 H   0  0  0  0  0  0  0  0  0  0  0  0  # atno 6907 bound_to 6896
  151.4354  133.3652  159.2782 H   0  0  0  0  0  0  0  0  0  0  0  0  # atno 6908 bound_to 6896
  150.9125  134.8565  159.7495 H   0  0  0  0  0  0  0  0  0  0  0  0  # atno 6909 bound_to 6896
  144.9756  140.7589  143.4644 H   0  0  0  0  0  0  0  0  0  0  0  0  # atno 7974 bound_to 7965
  155.5585  140.3488  155.4485 H   0  0  0  0  0  0  0  0  0  0  0  0  # atno 8008 bound_to 7997
  156.0531  140.1322  157.0053 H   0  0  0  0  0  0  0  0  0  0  0  0  # atno 8009 bound_to 7997
  154.4444  140.1000  156.6391 H   0  0  0  0  0  0  0  0  0  0  0  0  # atno 8010 bound_to 7997
  139.9436  144.6073  150.8228 H   0  0  0  0  0  0  0  0  0  0  0  0  # atno 10167 bound_to 10162
  157.5740  130.8929  149.9316 H   0  0  0  0  0  0  0  0  0  0  0  0  # atno 10718 bound_to 10713
  152.9897  135.6149  154.2854 H   0  0  0  0  0  0  0  0  0  0  0  0  # atno 10763 bound_to 10752
  154.2582  135.2783  155.2791 H   0  0  0  0  0  0  0  0  0  0  0  0  # atno 10764 bound_to 10752
  154.5229  135.5810  153.6753 H   0  0  0  0  0  0  0  0  0  0  0  0  # atno 10765 bound_to 10752
  141.1588  133.6812  156.6874 H   0  0  0  0  0  0  0  0  0  0  0  0  # atno 11005 bound_to 11000
  145.2495  139.2037  143.4950 LP  0  0  0  0  0  0  0  0  0  0  0  0  # atno 17320 bound_to 7965
  146.3394  140.2406  142.8595 LP  0  0  0  0  0  0  0  0  0  0  0  0  # atno 17321 bound_to 7965
  140.7604  143.3150  151.2755 LP  0  0  0  0  0  0  0  0  0  0  0  0  # atno 17342 bound_to 10162
  139.6685  144.0063  152.2738 LP  0  0  0  0  0  0  0  0  0  0  0  0  # atno 17343 bound_to 10162
  156.0785  130.3676  150.0628 LP  0  0  0  0  0  0  0  0  0  0  0  0  # atno 17370 bound_to 10713
  156.8777  130.9546  151.3603 LP  0  0  0  0  0  0  0  0  0  0  0  0  # atno 17371 bound_to 10713
  140.3056  134.8128  157.4134 LP  0  0  0  0  0  0  0  0  0  0  0  0  # atno 17394 bound_to 11000
  140.1223  134.5203  155.8173 LP  0  0  0  0  0  0  0  0  0  0  0  0  # atno 17395 bound_to 11000

$$$$
