AV-unprocessed.smi:1033|AV-procd|sdf|4490|dock6
  -GOLD-   22720 2473D 1   1.00000     0.00000
 Structure written by MMmdl.
 56 58  0  0  0  0  0  0  0  0  2 V2000
  152.9573  143.0009  161.7009 C   0  0  0  0  0  0  0  0  0  0  0  0
  152.4328  142.6660  160.3156 C   0  0  0  0  0  0  0  0  0  0  0  0
  152.7583  141.4166  159.7414 C   0  0  0  0  0  0  0  0  0  0  0  0
  152.2936  141.0685  158.4545 C   0  0  0  0  0  0  0  0  0  0  0  0
  152.4919  139.9198  157.7079 N   0  0  0  0  0  0  0  0  0  0  0  0
  151.8122  140.1992  156.6000 C   0  0  0  0  0  0  0  0  0  0  0  0
  151.1986  141.3966  156.5379 N   0  0  0  0  0  0  0  0  0  0  0  0
  150.4147  141.9167  155.4315 C   0  0  0  0  0  0  0  0  0  0  0  0
  149.4129  140.8803  154.8871 C   0  0  2  0  0  0  0  0  0  0  0  0
  150.0895  139.9856  154.0248 O   0  0  0  0  0  0  0  0  0  0  0  0
  148.2658  141.5488  154.1037 C   0  0  0  0  0  0  0  0  0  0  0  0
  147.3163  142.2779  154.9828 N   0  3  0  0  0  0  0  0  0  0  0  0
  146.7911  141.4255  156.0802 C   0  0  0  0  0  0  0  0  0  0  0  0
  145.8797  142.2504  157.0119 C   0  0  0  0  0  0  0  0  0  0  0  0
  144.7641  142.8876  156.3130 N   0  0  0  0  0  0  0  0  0  0  0  0
  143.7347  141.9287  155.8940 C   0  0  0  0  0  0  0  0  0  0  0  0
  142.3252  142.5172  155.6836 C   0  0  2  0  0  0  0  0  0  0  0  0
  141.2653  141.4444  155.3942 C   0  0  0  0  0  0  0  0  0  0  0  0
  142.3800  143.3906  154.5760 O   0  0  0  0  0  0  0  0  0  0  0  0
  145.3046  143.7167  155.2326 C   0  0  0  0  0  0  0  0  0  0  0  0
  146.2005  142.9349  154.2504 C   0  0  0  0  0  0  0  0  0  0  0  0
  151.4869  142.0111  157.7521 C   0  0  0  0  0  0  0  0  0  0  0  0
  151.1538  143.2563  158.3142 C   0  0  0  0  0  0  0  0  0  0  0  0
  151.6279  143.5889  159.6005 C   0  0  0  0  0  0  0  0  0  0  0  0
  151.2659  144.9370  160.1984 C   0  0  0  0  0  0  0  0  0  0  0  0
  153.5612  142.1882  162.1054 H   0  0  0  0  0  0  0  0  0  0  0  0
  152.1310  143.1786  162.3897 H   0  0  0  0  0  0  0  0  0  0  0  0
  153.5800  143.8951  161.6680 H   0  0  0  0  0  0  0  0  0  0  0  0
  153.3712  140.7136  160.2864 H   0  0  0  0  0  0  0  0  0  0  0  0
  151.7604  139.4938  155.7836 H   0  0  0  0  0  0  0  0  0  0  0  0
  149.8843  142.8036  155.7807 H   0  0  0  0  0  0  0  0  0  0  0  0
  151.0937  142.2507  154.6455 H   0  0  0  0  0  0  0  0  0  0  0  0
  149.0172  140.3116  155.7281 H   0  0  0  0  0  0  0  0  0  0  0  0
  149.6529  139.9880  153.1857 H   0  0  0  0  0  0  0  0  0  0  0  0
  148.6623  142.2371  153.3556 H   0  0  0  0  0  0  0  0  0  0  0  0
  147.7292  140.7757  153.5513 H   0  0  0  0  0  0  0  0  0  0  0  0
  146.2549  140.5711  155.6650 H   0  0  0  0  0  0  0  0  0  0  0  0
  147.6229  141.0226  156.6595 H   0  0  0  0  0  0  0  0  0  0  0  0
  145.5014  141.6180  157.8160 H   0  0  0  0  0  0  0  0  0  0  0  0
  146.4795  143.0204  157.4992 H   0  0  0  0  0  0  0  0  0  0  0  0
  144.0458  141.4216  154.9808 H   0  0  0  0  0  0  0  0  0  0  0  0
  143.6575  141.1452  156.6492 H   0  0  0  0  0  0  0  0  0  0  0  0
  142.0215  143.1121  156.5444 H   0  0  0  0  0  0  0  0  0  0  0  0
  141.1616  140.7576  156.2346 H   0  0  0  0  0  0  0  0  0  0  0  0
  141.5246  140.8548  154.5139 H   0  0  0  0  0  0  0  0  0  0  0  0
  140.2878  141.8941  155.2183 H   0  0  0  0  0  0  0  0  0  0  0  0
  142.7648  142.9287  153.8465 H   0  0  0  0  0  0  0  0  0  0  0  0
  144.5011  144.2131  154.6902 H   0  0  0  0  0  0  0  0  0  0  0  0
  145.8936  144.5229  155.6722 H   0  0  0  0  0  0  0  0  0  0  0  0
  146.5930  143.6301  153.5096 H   0  0  0  0  0  0  0  0  0  0  0  0
  145.6213  142.1906  153.7027 H   0  0  0  0  0  0  0  0  0  0  0  0
  150.5410  143.9509  157.7590 H   0  0  0  0  0  0  0  0  0  0  0  0
  150.6470  145.5216  159.5172 H   0  0  0  0  0  0  0  0  0  0  0  0
  152.1656  145.5147  160.4118 H   0  0  0  0  0  0  0  0  0  0  0  0
  150.7093  144.8057  161.1267 H   0  0  0  0  0  0  0  0  0  0  0  0
  147.8493  143.0116  155.4284 H   0  0  0  0  0  0  0  0  0  0  0  0
  1  2  1  0  0  0  0
  1 26  1  0  0  0  0
  1 27  1  0  0  0  0
  1 28  1  0  0  0  0
  2 24  1  0  0  0  0
  2  3  2  0  0  0  0
  3  4  1  0  0  0  0
  3 29  1  0  0  0  0
  4 22  2  0  0  0  0
  4  5  1  0  0  0  0
  5  6  2  0  0  0  0
  6  7  1  0  0  0  0
  6 30  1  0  0  0  0
  7  8  1  0  0  0  0
  7 22  1  0  0  0  0
  8  9  1  0  0  0  0
  8 31  1  0  0  0  0
  8 32  1  0  0  0  0
  9 10  1  0  0  0  0
  9 11  1  0  0  0  0
  9 33  1  0  0  0  0
 10 34  1  0  0  0  0
 11 12  1  0  0  0  0
 11 35  1  0  0  0  0
 11 36  1  0  0  0  0
 12 21  1  0  0  0  0
 12 13  1  0  0  0  0
 12 56  1  0  0  0  0
 13 14  1  0  0  0  0
 13 37  1  0  0  0  0
 13 38  1  0  0  0  0
 14 15  1  0  0  0  0
 14 39  1  0  0  0  0
 14 40  1  0  0  0  0
 15 16  1  0  0  0  0
 15 20  1  0  0  0  0
 16 17  1  0  0  0  0
 16 41  1  0  0  0  0
 16 42  1  0  0  0  0
 17 18  1  0  0  0  0
 17 19  1  0  0  0  0
 17 43  1  0  0  0  0
 18 44  1  0  0  0  0
 18 45  1  0  0  0  0
 18 46  1  0  0  0  0
 19 47  1  0  0  0  0
 20 21  1  0  0  0  0
 20 48  1  0  0  0  0
 20 49  1  0  0  0  0
 21 50  1  0  0  0  0
 21 51  1  0  0  0  0
 22 23  1  0  0  0  0
 23 24  2  0  0  0  0
 23 52  1  0  0  0  0
 24 25  1  0  0  0  0
 25 53  1  0  0  0  0
 25 54  1  0  0  0  0
 25 55  1  0  0  0  0
M  CHG  1  12   1
M  END
> <s_m_source_file>
AV-unprocessed.smi

> <i_m_source_file_index>
1033

> <i_lp_mmshare_version>
43012

> <i_f3d_flags>
0

> <s_epik_input>
W0NIM11jKFtjSF0xKWMoW0NIM10pW2NIXWMoYzEyKW4oW2NIXW4yKVtDSDJdW0NASF0oW09IXSlbQ0gyXU4zW0NIMl1bQ0gyXU4oW0NIMl1bQ0gyXTMpW0NIMl1bQ0BIXShbQ0gzXSlbT0hd

> <s_epik_cmdline>
J2VwaWtfcHl0aG9uJywgJy1waCcsICc3LjAnLCAnLXRuJywgJzgnLCAnLW1hJywgJzIwMCcsICctbWV0YWxfYmluZGluZycsICctaW1hZScsICc8aW5maWxlLm1hZT4nLCAnLW9tYWUnLCAnPG91dGZpbGUubWFlPic=

> <r_epik_Ionization_Penalty>
0.131893

> <r_epik_Ionization_Penalty_Charging>
0.00208556

> <r_epik_Ionization_Penalty_Neutral>
0.129808

> <r_epik_State_Penalty>
0.452125

> <r_epik_Charging_Adjusted_Penalty>
0.454211

> <i_epik_Tot_Q>
1

> <i_epik_Tot_abs_Q>
1

> <r_epik_Metal_State_Penalty>
0.376389

> <b_epik_Metal_Only>
0

> <s_lp_Force_Field>
OPLS_2005

> <r_lp_Energy>
32.1786

> <b_lp_Chiralities_Consistent>
1

> <s_lp_Variant>
AV-unprocessed.smi:1033-1

> <Gold.Version>
5.8.1

> <Gold.Id.Protein>
6NUR|6NUR_protein|mol2

> <Gold.PLP.Fitness>
64.5892

> <Gold.PLP.PLP>
-48.1141

> <Gold.PLP.part.hbond>
-5.0000

> <Gold.PLP.part.metal>
0.0000

> <Gold.PLP.part.buried>
-5.6168

> <Gold.PLP.part.nonpolar>
-36.1876

> <Gold.PLP.part.repulsive>
0.1581

> <Gold.PLP.ligand.clash>
0.0000

> <Gold.PLP.ligand.torsion>
0.6778

> <Gold.PLP.Chemscore.Hbond>
5.8720

> <Gold.PLP.Chemscore.CHOScore>
0.0000

> <Gold.PLP.Chemscore.Metal>
0.0000

> <Gold.Chemscore.Hbonds>
donor molecule, donor type, donor heavy atom, donor atom, acceptor molecule, acceptor atom, score
      L1  H    10    34       P1  7957  1.00
      L1  H    12    56       P1  8028  2.00
      L1  H    19    47       P1 10174  0.94
      P1  H  7989  7998       L1    10  0.76
      P1  H  7997  8008       L1     5  0.63

> <Gold.PLP.Chemscore.Internal.Correction>
0.2147

> <Gold.Rescore>
     Score         DG    S(hbond)    S(metal)    S(lipo)     H(rot)  DE(clash)    DE(int)     intcor
     18.75     -21.56       2.86        0.00     123.03       3.07       1.91       0.90       ----

> <Gold.Chemscore.Fitness>
18.7489

> <Gold.Chemscore.DG>
-21.5639

> <Gold.Chemscore.ZeroCoef>
-5.4800

> <Gold.Chemscore.Hbond>
2.8551

> <Gold.Chemscore.Metal>
0.0000

> <Gold.Chemscore.Lipo>
123.0289

> <Gold.Chemscore.Internal_Hbond>
0.0000

> <Gold.Chemscore.DEClash>
1.9106

> <Gold.Chemscore.DEInternal>
0.9044

> <Gold.Chemscore.Rot>
3.0650

> <Gold.Chemscore.Internal.Correction>
   9.000000E+99

> <Gold.Chemscore.Hbonds>
donor molecule, donor type, donor heavy atom, donor atom, acceptor molecule, acceptor atom, score
      L1  H    10    34       P1  7957  0.91
      L1  H    12    56       P1  8028  0.68
      L1  H    19    47       P1 10174  0.84
      P1  H  7989  7998       L1    10  0.06
      P1  H  7997  8008       L1     5  0.08

> <Gold.Chemscore.Hbond.Weighted>
-9.5360

> <Gold.Chemscore.Metal.Weighted>
-0.0000

> <Gold.Chemscore.Lipo.Weighted>
-14.3944

> <Gold.Chemscore.Internal_Hbond.Weighted>
0.0000

> <Gold.Chemscore.DEClash.Weighted>
1.9106

> <Gold.Chemscore.DEInternal.Weighted>
0.9044

> <Gold.Chemscore.Rot.Weighted>
7.8465

> <Gold.Chemscore.Internal.Correction.Weighted>
   9.000000E+99

> <Gold.Protein.RotatedTorsions>
[ 6907 6896 6895 6894 ] final  174.11 input  -60.11 | X-H torsion
[ 7974 7965 7964 7962 ] final   95.67 input  175.53 | X-H torsion
[ 8008 7997 7996 7995 ] final  -78.46 input   59.86 | X-H torsion
[ 10167 10162 10161 10158 ] final   -6.80 input  -65.29 | X-H torsion
[ 10718 10713 10712 10709 ] final  164.78 input   66.30 | X-H torsion
[ 10763 10752 10751 10750 ] final   65.34 input  -60.55 | X-H torsion
[ 11005 11000 10999 10996 ] final  104.68 input  -57.11 | X-H torsion

> <Gold.Protein.ActiveResidues>
 VAL166  LYS551  ARG553  GLY616  TRP617  ASP618  TYR619  PRO620  LYS621  CYS622 
 ASP623  PHE694  ASN695  SER759  ASP760  ASP761  ALA762  ILE779  LEU786  VAL792 
 PHE793  MET794  SER795  GLU796  ALA797  LYS798  CYS799  TRP800  GLU811  SER814 

> <Gold.Protein.RotatedAtoms>
  151.7575  133.3331  159.3408 H   0  0  0  0  0  0  0  0  0  0  0  0  # atno 6907 bound_to 6896
  150.7511  134.6136  159.6108 H   0  0  0  0  0  0  0  0  0  0  0  0  # atno 6908 bound_to 6896
  152.3427  134.7114  160.0310 H   0  0  0  0  0  0  0  0  0  0  0  0  # atno 6909 bound_to 6896
  145.4491  139.2295  143.3049 H   0  0  0  0  0  0  0  0  0  0  0  0  # atno 7974 bound_to 7965
  154.5691  140.0694  156.8937 H   0  0  0  0  0  0  0  0  0  0  0  0  # atno 8008 bound_to 7997
  155.2668  140.3362  155.4250 H   0  0  0  0  0  0  0  0  0  0  0  0  # atno 8009 bound_to 7997
  156.2104  140.1757  156.7693 H   0  0  0  0  0  0  0  0  0  0  0  0  # atno 8010 bound_to 7997
  140.7008  143.6153  150.8664 H   0  0  0  0  0  0  0  0  0  0  0  0  # atno 10167 bound_to 10162
  157.0895  131.0414  151.2543 H   0  0  0  0  0  0  0  0  0  0  0  0  # atno 10718 bound_to 10713
  153.0092  135.5360  154.6651 H   0  0  0  0  0  0  0  0  0  0  0  0  # atno 10763 bound_to 10752
  154.5850  135.2853  155.0696 H   0  0  0  0  0  0  0  0  0  0  0  0  # atno 10764 bound_to 10752
  154.1811  135.6516  153.5087 H   0  0  0  0  0  0  0  0  0  0  0  0  # atno 10765 bound_to 10752
  139.8794  134.9309  156.5398 H   0  0  0  0  0  0  0  0  0  0  0  0  # atno 11005 bound_to 11000
  146.2514  140.5248  142.8892 LP  0  0  0  0  0  0  0  0  0  0  0  0  # atno 17320 bound_to 7965
  144.8073  140.6322  143.6439 LP  0  0  0  0  0  0  0  0  0  0  0  0  # atno 17321 bound_to 7965
  139.9875  143.5883  152.2922 LP  0  0  0  0  0  0  0  0  0  0  0  0  # atno 17342 bound_to 10162
  139.6526  144.7661  151.2118 LP  0  0  0  0  0  0  0  0  0  0  0  0  # atno 17343 bound_to 10162
  157.4733  130.7721  149.7344 LP  0  0  0  0  0  0  0  0  0  0  0  0  # atno 17370 bound_to 10713
  155.9902  130.3946  150.3040 LP  0  0  0  0  0  0  0  0  0  0  0  0  # atno 17371 bound_to 10713
  140.8319  133.8272  155.8992 LP  0  0  0  0  0  0  0  0  0  0  0  0  # atno 17394 bound_to 11000
  140.9320  134.2009  157.4857 LP  0  0  0  0  0  0  0  0  0  0  0  0  # atno 17395 bound_to 11000

$$$$
