AV-unprocessed.smi:1904|AV-procd|sdf|7723|dock10
  -GOLD-   22720 9463D 1   1.00000     0.00000
 Structure written by MMmdl.
 50 51  0  0  0  0  0  0  0  0  2 V2000
  152.9527  137.9288  156.0060 C   0  0  0  0  0  0  0  0  0  0  0  0
  152.0277  139.1120  156.0058 C   0  0  0  0  0  0  0  0  0  0  0  0
  152.2487  140.1060  156.8493 N   0  0  0  0  0  0  0  0  0  0  0  0
  151.2585  140.9884  156.6087 N   0  0  0  0  0  0  0  0  0  0  0  0
  151.2016  142.2190  157.3738 C   0  0  0  0  0  0  0  0  0  0  0  0
  150.4047  140.5469  155.6166 C   0  0  0  0  0  0  0  0  0  0  0  0
  149.2170  141.3412  155.1771 C   0  0  0  0  0  0  0  0  0  0  0  0
  150.8750  139.3318  155.1948 C   0  0  0  0  0  0  0  0  0  0  0  0
  150.3135  138.4213  154.1323 C   0  0  0  0  0  0  0  0  0  0  0  0
  148.7949  138.3425  154.2845 C   0  0  0  0  0  0  0  0  0  0  0  0
  148.2978  138.0630  155.3754 O   0  0  0  0  0  0  0  0  0  0  0  0
  148.0688  138.5688  153.1790 N   0  0  0  0  0  0  0  0  0  0  0  0
  146.6166  138.4756  153.1020 C   0  0  0  0  0  0  0  0  0  0  0  0
  146.1199  137.1206  153.6419 C   0  0  0  0  0  0  0  0  0  0  0  0
  146.1301  136.0541  152.6089 N   0  3  2  0  0  0  0  0  0  0  0  0
  145.0115  136.2040  151.6423 C   0  0  0  0  0  0  0  0  0  0  0  0
  145.1204  135.1808  150.4993 C   0  0  0  0  0  0  0  0  0  0  0  0
  145.1696  133.7420  151.0393 C   0  0  1  0  0  0  0  0  0  0  0  0
  145.3149  132.7154  149.9071 C   0  0  0  0  0  0  0  0  0  0  0  0
  146.3106  133.6260  152.0636 C   0  0  0  0  0  0  0  0  0  0  0  0
  146.1746  134.6797  153.1757 C   0  0  0  0  0  0  0  0  0  0  0  0
  153.2132  137.6349  154.9894 H   0  0  0  0  0  0  0  0  0  0  0  0
  152.4848  137.0719  156.4907 H   0  0  0  0  0  0  0  0  0  0  0  0
  153.8821  138.1430  156.5348 H   0  0  0  0  0  0  0  0  0  0  0  0
  151.0608  143.0650  156.7006 H   0  0  0  0  0  0  0  0  0  0  0  0
  152.1263  142.3676  157.9331 H   0  0  0  0  0  0  0  0  0  0  0  0
  150.3665  142.1767  158.0732 H   0  0  0  0  0  0  0  0  0  0  0  0
  148.5698  140.7585  154.5223 H   0  0  0  0  0  0  0  0  0  0  0  0
  149.5294  142.2336  154.6349 H   0  0  0  0  0  0  0  0  0  0  0  0
  148.6211  141.6565  156.0339 H   0  0  0  0  0  0  0  0  0  0  0  0
  150.5464  138.7797  153.1294 H   0  0  0  0  0  0  0  0  0  0  0  0
  150.7454  137.4218  154.1983 H   0  0  0  0  0  0  0  0  0  0  0  0
  148.5606  138.7952  152.3264 H   0  0  0  0  0  0  0  0  0  0  0  0
  146.1553  139.3001  153.6486 H   0  0  0  0  0  0  0  0  0  0  0  0
  146.3422  138.6034  152.0557 H   0  0  0  0  0  0  0  0  0  0  0  0
  146.7117  136.8069  154.5035 H   0  0  0  0  0  0  0  0  0  0  0  0
  145.0983  137.2509  154.0024 H   0  0  0  0  0  0  0  0  0  0  0  0
  144.0601  136.0871  152.1640 H   0  0  0  0  0  0  0  0  0  0  0  0
  145.0198  137.2096  151.2201 H   0  0  0  0  0  0  0  0  0  0  0  0
  144.2731  135.2962  149.8225 H   0  0  0  0  0  0  0  0  0  0  0  0
  146.0152  135.3870  149.9103 H   0  0  0  0  0  0  0  0  0  0  0  0
  144.2287  133.5387  151.5530 H   0  0  0  0  0  0  0  0  0  0  0  0
  146.2409  132.8656  149.3511 H   0  0  0  0  0  0  0  0  0  0  0  0
  144.4872  132.7897  149.2012 H   0  0  0  0  0  0  0  0  0  0  0  0
  145.3234  131.6978  150.2983 H   0  0  0  0  0  0  0  0  0  0  0  0
  146.3173  132.6279  152.5032 H   0  0  0  0  0  0  0  0  0  0  0  0
  147.2721  133.7484  151.5628 H   0  0  0  0  0  0  0  0  0  0  0  0
  147.0166  134.5744  153.8583 H   0  0  0  0  0  0  0  0  0  0  0  0
  145.2711  134.4955  153.7590 H   0  0  0  0  0  0  0  0  0  0  0  0
  146.9789  136.1818  152.0764 H   0  0  0  0  0  0  0  0  0  0  0  0
  1  2  1  0  0  0  0
  1 22  1  0  0  0  0
  1 23  1  0  0  0  0
  1 24  1  0  0  0  0
  2  8  1  0  0  0  0
  2  3  2  0  0  0  0
  3  4  1  0  0  0  0
  4  5  1  0  0  0  0
  4  6  1  0  0  0  0
  5 25  1  0  0  0  0
  5 26  1  0  0  0  0
  5 27  1  0  0  0  0
  6  7  1  0  0  0  0
  6  8  2  0  0  0  0
  7 28  1  0  0  0  0
  7 29  1  0  0  0  0
  7 30  1  0  0  0  0
  8  9  1  0  0  0  0
  9 10  1  0  0  0  0
  9 31  1  0  0  0  0
  9 32  1  0  0  0  0
 10 11  2  0  0  0  0
 10 12  1  0  0  0  0
 12 13  1  0  0  0  0
 12 33  1  0  0  0  0
 13 14  1  0  0  0  0
 13 34  1  0  0  0  0
 13 35  1  0  0  0  0
 14 15  1  0  0  0  0
 14 36  1  0  0  0  0
 14 37  1  0  0  0  0
 15 21  1  0  0  0  0
 15 16  1  0  0  0  0
 15 50  1  0  0  0  0
 16 17  1  0  0  0  0
 16 38  1  0  0  0  0
 16 39  1  0  0  0  0
 17 18  1  0  0  0  0
 17 40  1  0  0  0  0
 17 41  1  0  0  0  0
 18 19  1  0  0  0  0
 18 20  1  0  0  0  0
 18 42  1  0  0  0  0
 19 43  1  0  0  0  0
 19 44  1  0  0  0  0
 19 45  1  0  0  0  0
 20 21  1  0  0  0  0
 20 46  1  0  0  0  0
 20 47  1  0  0  0  0
 21 48  1  0  0  0  0
 21 49  1  0  0  0  0
M  CHG  1  15   1
M  END
> <s_m_source_file>
AV-unprocessed.smi

> <i_m_source_file_index>
1904

> <i_lp_mmshare_version>
43012

> <i_f3d_flags>
0

> <s_epik_input>
W0NIM11jMW5uKFtDSDNdKWMoW0NIM10pYzFbQ0gyXUMoPU8pW05IXVtDSDJdW0NIMl1OMltDSDJdW0NIMl1bQ0hdKFtDSDNdKVtDSDJdW0NIMl0y

> <s_epik_cmdline>
J2VwaWtfcHl0aG9uJywgJy1waCcsICc3LjAnLCAnLXRuJywgJzgnLCAnLW1hJywgJzIwMCcsICctbWV0YWxfYmluZGluZycsICctaW1hZScsICc8aW5maWxlLm1hZT4nLCAnLW9tYWUnLCAnPG91dGZpbGUubWFlPic=

> <r_lp_tautomer_probability>
1

> <r_epik_Ionization_Penalty>
0.00374255

> <r_epik_Ionization_Penalty_Charging>
0.00158211

> <r_epik_Ionization_Penalty_Neutral>
0.00216044

> <r_epik_State_Penalty>
-0

> <r_epik_Charging_Adjusted_Penalty>
0.00158211

> <i_epik_Tot_Q>
1

> <i_epik_Tot_abs_Q>
1

> <r_epik_Metal_State_Penalty>
-0

> <b_epik_Metal_Only>
0

> <s_lp_Force_Field>
OPLS_2005

> <r_lp_Energy>
10.069

> <b_lp_Chiralities_Consistent>
1

> <s_lp_Variant>
AV-unprocessed.smi:1904-1

> <Gold.Version>
5.8.1

> <Gold.Id.Protein>
6NUR|6NUR_protein|mol2

> <Gold.PLP.Fitness>
48.5029

> <Gold.PLP.PLP>
-38.7122

> <Gold.PLP.part.hbond>
-4.0000

> <Gold.PLP.part.metal>
0.0000

> <Gold.PLP.part.buried>
-1.5002

> <Gold.PLP.part.nonpolar>
-33.9704

> <Gold.PLP.part.repulsive>
0.1255

> <Gold.PLP.ligand.clash>
0.0000

> <Gold.PLP.ligand.torsion>
0.6261

> <Gold.PLP.Chemscore.Hbond>
3.6745

> <Gold.PLP.Chemscore.CHOScore>
0.0000

> <Gold.PLP.Chemscore.Metal>
0.0000

> <Gold.Chemscore.Hbonds>
donor molecule, donor type, donor heavy atom, donor atom, acceptor molecule, acceptor atom, score
      L1  H    12    33       P1  7957  1.00
      L1  H    15    50       P1  7948  2.00
      P1  H  7997  8009       L1     3  0.59

> <Gold.PLP.Chemscore.Internal.Correction>
0.0195

> <Gold.Rescore>
     Score         DG    S(hbond)    S(metal)    S(lipo)     H(rot)  DE(clash)    DE(int)     intcor
     17.22     -19.22       1.97        0.00      96.56       1.61       0.05       1.95       ----

> <Gold.Chemscore.Fitness>
17.2191

> <Gold.Chemscore.DG>
-19.2175

> <Gold.Chemscore.ZeroCoef>
-5.4800

> <Gold.Chemscore.Hbond>
1.9677

> <Gold.Chemscore.Metal>
0.0000

> <Gold.Chemscore.Lipo>
96.5641

> <Gold.Chemscore.Internal_Hbond>
0.0000

> <Gold.Chemscore.DEClash>
0.0525

> <Gold.Chemscore.DEInternal>
1.9460

> <Gold.Chemscore.Rot>
1.6142

> <Gold.Chemscore.Internal.Correction>
   9.000000E+99

> <Gold.Chemscore.Hbonds>
donor molecule, donor type, donor heavy atom, donor atom, acceptor molecule, acceptor atom, score
      L1  H    12    33       P1  7957  0.92
      L1  H    15    50       P1  7948  0.96
      P1  H  7997  8009       L1     3  0.07

> <Gold.Chemscore.Hbond.Weighted>
-6.5720

> <Gold.Chemscore.Metal.Weighted>
-0.0000

> <Gold.Chemscore.Lipo.Weighted>
-11.2980

> <Gold.Chemscore.Internal_Hbond.Weighted>
0.0000

> <Gold.Chemscore.DEClash.Weighted>
0.0525

> <Gold.Chemscore.DEInternal.Weighted>
1.9460

> <Gold.Chemscore.Rot.Weighted>
4.1324

> <Gold.Chemscore.Internal.Correction.Weighted>
   9.000000E+99

> <Gold.Protein.RotatedTorsions>
[ 6907 6896 6895 6894 ] final  -99.45 input  -60.11 | X-H torsion
[ 7974 7965 7964 7962 ] final   -6.59 input  175.53 | X-H torsion
[ 8008 7997 7996 7995 ] final -175.07 input   59.86 | X-H torsion
[ 10167 10162 10161 10158 ] final -141.56 input  -65.29 | X-H torsion
[ 10718 10713 10712 10709 ] final -103.56 input   66.30 | X-H torsion
[ 10763 10752 10751 10750 ] final  163.13 input  -60.55 | X-H torsion
[ 11005 11000 10999 10996 ] final  123.97 input  -57.11 | X-H torsion

> <Gold.Protein.ActiveResidues>
 VAL166  LYS551  ARG553  GLY616  TRP617  ASP618  TYR619  PRO620  LYS621  CYS622 
 ASP623  PHE694  ASN695  SER759  ASP760  ASP761  ALA762  ILE779  LEU786  VAL792 
 PHE793  MET794  SER795  GLU796  ALA797  LYS798  CYS799  TRP800  GLU811  SER814 

> <Gold.Protein.RotatedAtoms>
  150.7080  134.1038  159.3975 H   0  0  0  0  0  0  0  0  0  0  0  0  # atno 6907 bound_to 6896
  151.9025  135.0370  160.0517 H   0  0  0  0  0  0  0  0  0  0  0  0  # atno 6908 bound_to 6896
  152.2402  133.5094  159.5302 H   0  0  0  0  0  0  0  0  0  0  0  0  # atno 6909 bound_to 6896
  146.2327  140.2192  142.8337 H   0  0  0  0  0  0  0  0  0  0  0  0  # atno 7974 bound_to 7965
  155.9779  140.1176  157.0753 H   0  0  0  0  0  0  0  0  0  0  0  0  # atno 8008 bound_to 7997
  154.4174  140.1150  156.5463 H   0  0  0  0  0  0  0  0  0  0  0  0  # atno 8009 bound_to 7997
  155.6509  140.3473  155.4750 H   0  0  0  0  0  0  0  0  0  0  0  0  # atno 8010 bound_to 7997
  139.8172  143.7622  152.2665 H   0  0  0  0  0  0  0  0  0  0  0  0  # atno 10167 bound_to 10162
  156.0270  130.5473  150.7270 H   0  0  0  0  0  0  0  0  0  0  0  0  # atno 10718 bound_to 10713
  154.2890  135.2761  155.2663 H   0  0  0  0  0  0  0  0  0  0  0  0  # atno 10763 bound_to 10752
  154.5151  135.5772  153.6639 H   0  0  0  0  0  0  0  0  0  0  0  0  # atno 10764 bound_to 10752
  152.9917  135.6190  154.3053 H   0  0  0  0  0  0  0  0  0  0  0  0  # atno 10765 bound_to 10752
  139.9337  134.9640  156.8338 H   0  0  0  0  0  0  0  0  0  0  0  0  # atno 11005 bound_to 11000
  144.9645  140.8308  143.5493 LP  0  0  0  0  0  0  0  0  0  0  0  0  # atno 17320 bound_to 7965
  145.2167  139.2178  143.5114 LP  0  0  0  0  0  0  0  0  0  0  0  0  # atno 17321 bound_to 7965
  139.7789  144.7451  151.0116 LP  0  0  0  0  0  0  0  0  0  0  0  0  # atno 17342 bound_to 10162
  140.7815  143.4563  151.0341 LP  0  0  0  0  0  0  0  0  0  0  0  0  # atno 17343 bound_to 10162
  157.4872  131.0907  151.0468 LP  0  0  0  0  0  0  0  0  0  0  0  0  # atno 17370 bound_to 10713
  157.0885  130.5932  149.5435 LP  0  0  0  0  0  0  0  0  0  0  0  0  # atno 17371 bound_to 10713
  140.6134  134.0061  155.7586 LP  0  0  0  0  0  0  0  0  0  0  0  0  # atno 17394 bound_to 11000
  141.0939  133.9874  157.3192 LP  0  0  0  0  0  0  0  0  0  0  0  0  # atno 17395 bound_to 11000

$$$$
