AV-unprocessed.smi:2703|AV-procd|sdf|10439|dock9
  -GOLD-   2272014483D 1   1.00000     0.00000
 Structure written by MMmdl.
 42 44  0  0  0  0  0  0  0  0  3 V2000
  152.6082  143.1401  160.5679 C   0  0  0  0  0  0  0  0  0  0  0  0
  152.1478  142.3378  159.3636 C   0  0  0  0  0  0  0  0  0  0  0  0
  152.4352  140.9554  159.3086 C   0  0  0  0  0  0  0  0  0  0  0  0
  152.0272  140.1739  158.2055 C   0  0  0  0  0  0  0  0  0  0  0  0
  152.2029  138.8253  157.9472 N   0  0  0  0  0  0  0  0  0  0  0  0
  151.6050  138.6994  156.7664 C   0  0  0  0  0  0  0  0  0  0  0  0
  151.0591  139.8072  156.2290 N   0  0  0  0  0  0  0  0  0  0  0  0
  150.3648  139.9056  154.9571 C   0  0  0  0  0  0  0  0  0  0  0  0
  149.5452  141.2034  154.8306 C   0  0  1  0  0  0  0  0  0  0  0  0
  149.2023  141.4179  153.4749 O   0  0  0  0  0  0  0  0  0  0  0  0
  148.2626  141.1577  155.6768 C   0  0  0  0  0  0  0  0  0  0  0  0
  146.8205  140.6325  154.7039 S   0  0  0  0  0  0  0  0  0  0  0  0
  145.7598  142.0413  154.4851 C   0  0  0  0  0  0  0  0  0  0  0  0
  145.8508  142.8806  153.3525 C   0  0  0  0  0  0  0  0  0  0  0  0
  144.9865  143.9794  153.2288 C   0  0  0  0  0  0  0  0  0  0  0  0
  144.0468  144.2191  154.2421 C   0  0  0  0  0  0  0  0  0  0  0  0
  143.9926  143.3574  155.3542 C   0  0  0  0  0  0  0  0  0  0  0  0
  144.8355  142.2860  155.4742 N   0  3  0  0  0  0  0  0  0  0  0  0
  144.7452  141.5268  156.5102 O   0  5  0  0  0  0  0  0  0  0  0  0
  151.3161  140.8176  157.1503 C   0  0  0  0  0  0  0  0  0  0  0  0
  151.0223  142.1922  157.1952 C   0  0  0  0  0  0  0  0  0  0  0  0
  151.4391  142.9587  158.3039 C   0  0  0  0  0  0  0  0  0  0  0  0
  151.1212  144.4432  158.3404 C   0  0  0  0  0  0  0  0  0  0  0  0
  153.1519  142.5166  161.2782 H   0  0  0  0  0  0  0  0  0  0  0  0
  151.7527  143.5711  161.0884 H   0  0  0  0  0  0  0  0  0  0  0  0
  153.2701  143.9489  160.2581 H   0  0  0  0  0  0  0  0  0  0  0  0
  152.9750  140.4817  160.1154 H   0  0  0  0  0  0  0  0  0  0  0  0
  151.5590  137.7456  156.2614 H   0  0  0  0  0  0  0  0  0  0  0  0
  151.0938  139.8338  154.1491 H   0  0  0  0  0  0  0  0  0  0  0  0
  149.7105  139.0380  154.8630 H   0  0  0  0  0  0  0  0  0  0  0  0
  150.1579  142.0432  155.1612 H   0  0  0  0  0  0  0  0  0  0  0  0
  149.4226  140.6400  152.9847 H   0  0  0  0  0  0  0  0  0  0  0  0
  148.3911  140.4853  156.5259 H   0  0  0  0  0  0  0  0  0  0  0  0
  148.0536  142.1497  156.0783 H   0  0  0  0  0  0  0  0  0  0  0  0
  146.5760  142.6963  152.5755 H   0  0  0  0  0  0  0  0  0  0  0  0
  145.0439  144.6298  152.3683 H   0  0  0  0  0  0  0  0  0  0  0  0
  143.3707  145.0583  154.1706 H   0  0  0  0  0  0  0  0  0  0  0  0
  143.2973  143.4791  156.1723 H   0  0  0  0  0  0  0  0  0  0  0  0
  150.4801  142.6529  156.3831 H   0  0  0  0  0  0  0  0  0  0  0  0
  150.5447  144.7487  157.4667 H   0  0  0  0  0  0  0  0  0  0  0  0
  152.0406  145.0289  158.3566 H   0  0  0  0  0  0  0  0  0  0  0  0
  150.5376  144.6892  159.2276 H   0  0  0  0  0  0  0  0  0  0  0  0
  1  2  1  0  0  0  0
  1 24  1  0  0  0  0
  1 25  1  0  0  0  0
  1 26  1  0  0  0  0
  2 22  1  0  0  0  0
  2  3  2  0  0  0  0
  3  4  1  0  0  0  0
  3 27  1  0  0  0  0
  4 20  2  0  0  0  0
  4  5  1  0  0  0  0
  5  6  2  0  0  0  0
  6  7  1  0  0  0  0
  6 28  1  0  0  0  0
  7  8  1  0  0  0  0
  7 20  1  0  0  0  0
  8  9  1  0  0  0  0
  8 29  1  0  0  0  0
  8 30  1  0  0  0  0
  9 10  1  0  0  0  0
  9 11  1  0  0  0  0
  9 31  1  0  0  0  0
 10 32  1  0  0  0  0
 11 12  1  0  0  0  0
 11 33  1  0  0  0  0
 11 34  1  0  0  0  0
 12 13  1  0  0  0  0
 13 18  1  0  0  0  0
 13 14  2  0  0  0  0
 14 15  1  0  0  0  0
 14 35  1  0  0  0  0
 15 16  2  0  0  0  0
 15 36  1  0  0  0  0
 16 17  1  0  0  0  0
 16 37  1  0  0  0  0
 17 18  2  0  0  0  0
 17 38  1  0  0  0  0
 18 19  1  0  0  0  0
 20 21  1  0  0  0  0
 21 22  2  0  0  0  0
 21 39  1  0  0  0  0
 22 23  1  0  0  0  0
 23 40  1  0  0  0  0
 23 41  1  0  0  0  0
 23 42  1  0  0  0  0
M  CHG  1  18   1
M  CHG  1  19  -1
M  END
> <s_m_source_file>
AV-unprocessed.smi

> <i_m_source_file_index>
2703

> <i_lp_mmshare_version>
43012

> <i_f3d_flags>
0

> <s_epik_input>
W0NIM11jKFtjSF0xKWMoW0NIM10pW2NIXWMoYzEyKW4oW2NIXW4yKVtDSDJdW0NASF0oW09IXSlbQ0gyXVNjM1tjSF1bY0hdW2NIXVtjSF1bbitdM1tPLV0=

> <s_epik_cmdline>
J2VwaWtfcHl0aG9uJywgJy1waCcsICc3LjAnLCAnLXRuJywgJzgnLCAnLW1hJywgJzIwMCcsICctbWV0YWxfYmluZGluZycsICctaW1hZScsICc8aW5maWxlLm1hZT4nLCAnLW9tYWUnLCAnPG91dGZpbGUubWFlPic=

> <r_epik_Ionization_Penalty>
0.106001

> <r_epik_Ionization_Penalty_Charging>
1.39204e-07

> <r_epik_Ionization_Penalty_Neutral>
0.106001

> <r_epik_State_Penalty>
0.0958598

> <r_epik_Charging_Adjusted_Penalty>
0.0958599

> <i_epik_Tot_Q>
0

> <i_epik_Tot_abs_Q>
2

> <r_epik_Metal_State_Penalty>
0.000104041

> <b_epik_Metal_Only>
0

> <s_lp_Force_Field>
OPLS_2005

> <r_lp_Energy>
17.7295

> <b_lp_Chiralities_Consistent>
1

> <s_lp_Variant>
AV-unprocessed.smi:2703-2

> <Gold.Version>
5.8.1

> <Gold.Id.Protein>
6NUR|6NUR_protein|mol2

> <Gold.PLP.Fitness>
50.4839

> <Gold.PLP.PLP>
-50.0339

> <Gold.PLP.part.hbond>
-3.0000

> <Gold.PLP.part.metal>
0.0000

> <Gold.PLP.part.buried>
-6.3199

> <Gold.PLP.part.nonpolar>
-39.3723

> <Gold.PLP.part.repulsive>
0.0356

> <Gold.PLP.ligand.clash>
1.3838

> <Gold.PLP.ligand.torsion>
1.4995

> <Gold.PLP.Chemscore.Hbond>
1.6000

> <Gold.PLP.Chemscore.CHOScore>
0.0000

> <Gold.PLP.Chemscore.Metal>
0.0000

> <Gold.Chemscore.Hbonds>
donor molecule, donor type, donor heavy atom, donor atom, acceptor molecule, acceptor atom, score
      L1  H    10    32       P1  7957  0.80
      P1  H  8011  8017       L1    10  0.59

> <Gold.PLP.Chemscore.Internal.Correction>
0.0328

> <Gold.Rescore>
     Score         DG    S(hbond)    S(metal)    S(lipo)     H(rot)  DE(clash)    DE(int)     intcor
     16.30     -19.04       1.25        0.00     129.57       2.26       0.10       2.64       ----

> <Gold.Chemscore.Fitness>
16.2994

> <Gold.Chemscore.DG>
-19.0401

> <Gold.Chemscore.ZeroCoef>
-5.4800

> <Gold.Chemscore.Hbond>
1.2501

> <Gold.Chemscore.Metal>
0.0000

> <Gold.Chemscore.Lipo>
129.5691

> <Gold.Chemscore.Internal_Hbond>
0.0000

> <Gold.Chemscore.DEClash>
0.1045

> <Gold.Chemscore.DEInternal>
2.6361

> <Gold.Chemscore.Rot>
2.2558

> <Gold.Chemscore.Internal.Correction>
   9.000000E+99

> <Gold.Chemscore.Hbonds>
donor molecule, donor type, donor heavy atom, donor atom, acceptor molecule, acceptor atom, score
      L1  H    10    32       P1  7957  0.79
      P1  H  8011  8017       L1    10  0.05

> <Gold.Chemscore.Hbond.Weighted>
-4.1753

> <Gold.Chemscore.Metal.Weighted>
-0.0000

> <Gold.Chemscore.Lipo.Weighted>
-15.1596

> <Gold.Chemscore.Internal_Hbond.Weighted>
0.0000

> <Gold.Chemscore.DEClash.Weighted>
0.1045

> <Gold.Chemscore.DEInternal.Weighted>
2.6361

> <Gold.Chemscore.Rot.Weighted>
5.7748

> <Gold.Chemscore.Internal.Correction.Weighted>
   9.000000E+99

> <Gold.Protein.RotatedTorsions>
[ 6907 6896 6895 6894 ] final  130.29 input  -60.11 | X-H torsion
[ 7974 7965 7964 7962 ] final  -51.06 input  175.53 | X-H torsion
[ 8008 7997 7996 7995 ] final   63.56 input   59.86 | X-H torsion
[ 10167 10162 10161 10158 ] final   96.63 input  -65.29 | X-H torsion
[ 10718 10713 10712 10709 ] final   95.29 input   66.30 | X-H torsion
[ 10763 10752 10751 10750 ] final -160.31 input  -60.55 | X-H torsion
[ 11005 11000 10999 10996 ] final  -83.46 input  -57.11 | X-H torsion

> <Gold.Protein.ActiveResidues>
 VAL166  LYS551  ARG553  GLY616  TRP617  ASP618  TYR619  PRO620  LYS621  CYS622 
 ASP623  PHE694  ASN695  SER759  ASP760  ASP761  ALA762  ILE779  LEU786  VAL792 
 PHE793  MET794  SER795  GLU796  ALA797  LYS798  CYS799  TRP800  GLU811  SER814 

> <Gold.Protein.RotatedAtoms>
  152.3541  133.6215  159.5966 H   0  0  0  0  0  0  0  0  0  0  0  0  # atno 6907 bound_to 6896
  150.7557  133.9528  159.3500 H   0  0  0  0  0  0  0  0  0  0  0  0  # atno 6908 bound_to 6896
  151.7375  135.0862  160.0361 H   0  0  0  0  0  0  0  0  0  0  0  0  # atno 6909 bound_to 6896
  145.9230  140.7816  142.9637 H   0  0  0  0  0  0  0  0  0  0  0  0  # atno 7974 bound_to 7965
  155.6321  140.3496  155.4686 H   0  0  0  0  0  0  0  0  0  0  0  0  # atno 8008 bound_to 7997
  155.9995  140.1210  157.0585 H   0  0  0  0  0  0  0  0  0  0  0  0  # atno 8009 bound_to 7997
  154.4244  140.1103  156.5663 H   0  0  0  0  0  0  0  0  0  0  0  0  # atno 8010 bound_to 7997
  139.7876  144.6864  150.9936 H   0  0  0  0  0  0  0  0  0  0  0  0  # atno 10167 bound_to 10162
  157.6940  131.0540  150.4316 H   0  0  0  0  0  0  0  0  0  0  0  0  # atno 10718 bound_to 10713
  154.7401  135.3066  154.8743 H   0  0  0  0  0  0  0  0  0  0  0  0  # atno 10763 bound_to 10752
  153.9561  135.6758  153.4748 H   0  0  0  0  0  0  0  0  0  0  0  0  # atno 10764 bound_to 10752
  153.1000  135.4916  154.8774 H   0  0  0  0  0  0  0  0  0  0  0  0  # atno 10765 bound_to 10752
  141.1657  133.7295  156.8723 H   0  0  0  0  0  0  0  0  0  0  0  0  # atno 11005 bound_to 11000
  144.6755  140.2006  143.7387 LP  0  0  0  0  0  0  0  0  0  0  0  0  # atno 17320 bound_to 7965
  145.8525  139.2182  143.1764 LP  0  0  0  0  0  0  0  0  0  0  0  0  # atno 17321 bound_to 7965
  140.7820  143.4415  151.0545 LP  0  0  0  0  0  0  0  0  0  0  0  0  # atno 17342 bound_to 10162
  139.8093  143.7973  152.3170 LP  0  0  0  0  0  0  0  0  0  0  0  0  # atno 17343 bound_to 10162
  156.4682  130.4047  149.6534 LP  0  0  0  0  0  0  0  0  0  0  0  0  # atno 17370 bound_to 10713
  156.3624  130.7488  151.2462 LP  0  0  0  0  0  0  0  0  0  0  0  0  # atno 17371 bound_to 10713
  140.1773  134.9058  157.2906 LP  0  0  0  0  0  0  0  0  0  0  0  0  # atno 17394 bound_to 11000
  140.2435  134.3768  155.7471 LP  0  0  0  0  0  0  0  0  0  0  0  0  # atno 17395 bound_to 11000

$$$$
