AV-unprocessed.smi:1575|AV-procd|sdf|6340|dock8
  -GOLD-   22720 6553D 1   1.00000     0.00000
 Structure written by MMmdl.
 41 41  0  0  0  0  0  0  0  0  1 V2000
  142.6596  137.6260  153.8919 C   0  0  0  0  0  0  0  0  0  0  0  0
  144.0233  138.0447  153.6081 N   0  0  0  0  0  0  0  0  0  0  0  0
  145.1102  137.3065  153.8745 C   0  0  0  0  0  0  0  0  0  0  0  0
  145.0541  136.1933  154.4003 O   0  0  0  0  0  0  0  0  0  0  0  0
  146.4656  137.9357  153.5081 C   0  0  1  0  0  0  0  0  0  0  0  0
  146.6114  139.2493  154.3126 C   0  0  0  0  0  0  0  0  0  0  0  0
  147.5590  140.3000  153.6893 C   0  0  0  0  0  0  0  0  0  0  0  0
  149.0217  139.9759  154.0282 C   0  0  0  0  0  0  0  0  0  0  0  0
  147.2145  141.7338  154.1258 C   0  0  0  0  0  0  0  0  0  0  0  0
  147.5539  137.0322  153.8820 N   0  0  0  0  0  0  0  0  0  0  0  0
  147.9455  136.7666  155.1376 C   0  0  0  0  0  0  0  0  0  0  0  0
  147.3891  137.2373  156.1308 O   0  0  0  0  0  0  0  0  0  0  0  0
  149.1346  135.8076  155.2860 C   0  0  0  0  0  0  0  0  0  0  0  0
  150.4121  136.5104  155.4728 N   0  0  0  0  0  0  0  0  0  0  0  0
  150.9132  137.3331  154.4739 C   0  0  0  0  0  0  0  0  0  0  0  0
  152.0894  137.9965  154.5746 C   0  0  0  0  0  0  0  0  0  0  0  0
  152.9079  137.8709  155.7758 C   0  0  0  0  0  0  0  0  0  0  0  0
  153.9859  138.4311  155.9613 O   0  0  0  0  0  0  0  0  0  0  0  0
  152.3705  137.0339  156.7570 N   0  0  0  0  0  0  0  0  0  0  0  0
  151.1596  136.3467  156.6595 C   0  0  0  0  0  0  0  0  0  0  0  0
  150.7791  135.6299  157.5845 O   0  0  0  0  0  0  0  0  0  0  0  0
  152.9030  136.9143  157.6064 H   0  0  0  0  0  0  0  0  0  0  0  0
  141.9640  138.4228  153.6288 H   0  0  0  0  0  0  0  0  0  0  0  0
  142.5338  137.4004  154.9516 H   0  0  0  0  0  0  0  0  0  0  0  0
  142.3986  136.7392  153.3130 H   0  0  0  0  0  0  0  0  0  0  0  0
  144.1497  138.9498  153.1786 H   0  0  0  0  0  0  0  0  0  0  0  0
  146.4917  138.1390  152.4363 H   0  0  0  0  0  0  0  0  0  0  0  0
  145.6293  139.7059  154.4469 H   0  0  0  0  0  0  0  0  0  0  0  0
  146.9653  139.0120  155.3178 H   0  0  0  0  0  0  0  0  0  0  0  0
  147.4690  140.2521  152.6036 H   0  0  0  0  0  0  0  0  0  0  0  0
  149.1977  140.0145  155.1038 H   0  0  0  0  0  0  0  0  0  0  0  0
  149.7019  140.6840  153.5538 H   0  0  0  0  0  0  0  0  0  0  0  0
  149.2953  138.9789  153.6817 H   0  0  0  0  0  0  0  0  0  0  0  0
  147.2403  141.8349  155.2114 H   0  0  0  0  0  0  0  0  0  0  0  0
  146.2234  142.0321  153.7848 H   0  0  0  0  0  0  0  0  0  0  0  0
  147.9233  142.4504  153.7099 H   0  0  0  0  0  0  0  0  0  0  0  0
  148.0676  136.6046  153.1253 H   0  0  0  0  0  0  0  0  0  0  0  0
  148.9339  135.1493  156.1325 H   0  0  0  0  0  0  0  0  0  0  0  0
  149.1948  135.1492  154.4167 H   0  0  0  0  0  0  0  0  0  0  0  0
  150.3429  137.4526  153.5639 H   0  0  0  0  0  0  0  0  0  0  0  0
  152.4271  138.6225  153.7614 H   0  0  0  0  0  0  0  0  0  0  0  0
  1  2  1  0  0  0  0
  1 23  1  0  0  0  0
  1 24  1  0  0  0  0
  1 25  1  0  0  0  0
  2  3  1  0  0  0  0
  2 26  1  0  0  0  0
  3  4  2  0  0  0  0
  3  5  1  0  0  0  0
  5  6  1  0  0  0  0
  5 10  1  0  0  0  0
  5 27  1  0  0  0  0
  6  7  1  0  0  0  0
  6 28  1  0  0  0  0
  6 29  1  0  0  0  0
  7  8  1  0  0  0  0
  7  9  1  0  0  0  0
  7 30  1  0  0  0  0
  8 31  1  0  0  0  0
  8 32  1  0  0  0  0
  8 33  1  0  0  0  0
  9 34  1  0  0  0  0
  9 35  1  0  0  0  0
  9 36  1  0  0  0  0
 10 11  1  0  0  0  0
 10 37  1  0  0  0  0
 11 12  2  0  0  0  0
 11 13  1  0  0  0  0
 13 14  1  0  0  0  0
 13 38  1  0  0  0  0
 13 39  1  0  0  0  0
 14 20  1  0  0  0  0
 14 15  1  0  0  0  0
 15 16  2  0  0  0  0
 15 40  1  0  0  0  0
 16 17  1  0  0  0  0
 16 41  1  0  0  0  0
 17 18  2  0  0  0  0
 17 19  1  0  0  0  0
 19 22  1  0  0  0  0
 19 20  1  0  0  0  0
 20 21  2  0  0  0  0
M  END
> <s_m_source_file>
AV-unprocessed.smi

> <i_m_source_file_index>
1575

> <i_lp_mmshare_version>
43012

> <i_f3d_flags>
0

> <s_epik_input>
W0NIM11bTkhdQyg9TylbQ0BIXShbQ0gyXVtDSF0oW0NIM10pW0NIM10pW05IXUMoPU8pW0NIMl1uMVtjSF1bY0hdYyg9TylbbkhdYzE9Tw==

> <s_epik_cmdline>
J2VwaWtfcHl0aG9uJywgJy1waCcsICc3LjAnLCAnLXRuJywgJzgnLCAnLW1hJywgJzIwMCcsICctbWV0YWxfYmluZGluZycsICctaW1hZScsICc8aW5maWxlLm1hZT4nLCAnLW9tYWUnLCAnPG91dGZpbGUubWFlPic=

> <r_lp_tautomer_probability>
0.999537

> <r_epik_Ionization_Penalty>
0.00357166

> <r_epik_Ionization_Penalty_Charging>
0.00357161

> <r_epik_Ionization_Penalty_Neutral>
5.44484e-08

> <r_epik_State_Penalty>
0.00253761

> <r_epik_Charging_Adjusted_Penalty>
0.00610921

> <i_epik_Tot_Q>
0

> <i_epik_Tot_abs_Q>
0

> <r_epik_Metal_State_Penalty>
0.368734

> <b_epik_Metal_Only>
0

> <s_lp_Force_Field>
OPLS_2005

> <r_lp_Energy>
5.11716

> <b_lp_Chiralities_Consistent>
1

> <s_lp_Variant>
AV-unprocessed.smi:1575-2

> <Gold.Version>
5.8.1

> <Gold.Id.Protein>
6NUR|6NUR_protein|mol2

> <Gold.PLP.Fitness>
37.0905

> <Gold.PLP.PLP>
-25.2761

> <Gold.PLP.part.hbond>
-3.9937

> <Gold.PLP.part.metal>
0.0000

> <Gold.PLP.part.buried>
-3.2768

> <Gold.PLP.part.nonpolar>
-19.2179

> <Gold.PLP.part.repulsive>
0.1660

> <Gold.PLP.ligand.clash>
0.0000

> <Gold.PLP.ligand.torsion>
1.0043

> <Gold.PLP.Chemscore.Hbond>
3.5136

> <Gold.PLP.Chemscore.CHOScore>
1.0719

> <Gold.PLP.Chemscore.Metal>
0.0000

> <Gold.Chemscore.Hbonds>
donor molecule, donor type, donor heavy atom, donor atom, acceptor molecule, acceptor atom, score
      L1  H     2    26       P1 10175  1.00
      L1  H    10    37       P1  7948  1.00
      P1  H  6896  6908       L1    21  0.25
      P1  H  7997  8008       L1    18  0.38
      L1  C    15    40       P1  7948  0.86
      L1  C    15    40       P1  7949  0.19

> <Gold.PLP.Chemscore.Internal.Correction>
0.0667

> <Gold.Rescore>
     Score         DG    S(hbond)    S(metal)    S(lipo)     H(rot)  DE(clash)    DE(int)     intcor
     14.29     -16.81       3.91        0.00      46.71       2.81       0.01       2.51       ----

> <Gold.Chemscore.Fitness>
14.2924

> <Gold.Chemscore.DG>
-16.8105

> <Gold.Chemscore.ZeroCoef>
-5.4800

> <Gold.Chemscore.Hbond>
3.9076

> <Gold.Chemscore.Metal>
0.0000

> <Gold.Chemscore.Lipo>
46.7150

> <Gold.Chemscore.Internal_Hbond>
0.0000

> <Gold.Chemscore.DEClash>
0.0077

> <Gold.Chemscore.DEInternal>
2.5104

> <Gold.Chemscore.Rot>
2.8072

> <Gold.Chemscore.Internal.Correction>
   9.000000E+99

> <Gold.Chemscore.Hbonds>
donor molecule, donor type, donor heavy atom, donor atom, acceptor molecule, acceptor atom, score
      L1  H     2    26       P1 10175  0.99
      L1  H    10    37       P1  7948  0.98
      P1  H  6896  6908       L1    21  0.25
      P1  H  7997  8008       L1    18  0.38

> <Gold.Chemscore.Hbond.Weighted>
-13.0512

> <Gold.Chemscore.Metal.Weighted>
-0.0000

> <Gold.Chemscore.Lipo.Weighted>
-5.4656

> <Gold.Chemscore.Internal_Hbond.Weighted>
0.0000

> <Gold.Chemscore.DEClash.Weighted>
0.0077

> <Gold.Chemscore.DEInternal.Weighted>
2.5104

> <Gold.Chemscore.Rot.Weighted>
7.1864

> <Gold.Chemscore.Internal.Correction.Weighted>
   9.000000E+99

> <Gold.Protein.RotatedTorsions>
[ 6907 6896 6895 6894 ] final  166.54 input  -60.11 | X-H torsion
[ 7974 7965 7964 7962 ] final    3.68 input  175.53 | X-H torsion
[ 8008 7997 7996 7995 ] final  -65.19 input   59.86 | X-H torsion
[ 10167 10162 10161 10158 ] final   13.74 input  -65.29 | X-H torsion
[ 10718 10713 10712 10709 ] final   80.33 input   66.30 | X-H torsion
[ 10763 10752 10751 10750 ] final    7.01 input  -60.55 | X-H torsion
[ 11005 11000 10999 10996 ] final  -95.74 input  -57.11 | X-H torsion

> <Gold.Protein.ActiveResidues>
 VAL166  LYS551  ARG553  GLY616  TRP617  ASP618  TYR619  PRO620  LYS621  CYS622 
 ASP623  PHE694  ASN695  SER759  ASP760  ASP761  ALA762  ILE779  LEU786  VAL792 
 PHE793  MET794  SER795  GLU796  ALA797  LYS798  CYS799  TRP800  GLU811  SER814 

> <Gold.Protein.RotatedAtoms>
  151.8772  133.3488  159.3754 H   0  0  0  0  0  0  0  0  0  0  0  0  # atno 6907 bound_to 6896
  150.7137  134.5054  159.5591 H   0  0  0  0  0  0  0  0  0  0  0  0  # atno 6908 bound_to 6896
  152.2598  134.8046  160.0483 H   0  0  0  0  0  0  0  0  0  0  0  0  # atno 6909 bound_to 6896
  146.2445  140.0649  142.8366 H   0  0  0  0  0  0  0  0  0  0  0  0  # atno 7974 bound_to 7965
  154.4657  140.0938  156.7013 H   0  0  0  0  0  0  0  0  0  0  0  0  # atno 8008 bound_to 7997
  155.4866  140.3469  155.4330 H   0  0  0  0  0  0  0  0  0  0  0  0  # atno 8009 bound_to 7997
  156.0951  140.1407  156.9530 H   0  0  0  0  0  0  0  0  0  0  0  0  # atno 8010 bound_to 7997
  140.5982  143.8658  150.6939 H   0  0  0  0  0  0  0  0  0  0  0  0  # atno 10167 bound_to 10162
  157.6803  130.9954  150.2063 H   0  0  0  0  0  0  0  0  0  0  0  0  # atno 10718 bound_to 10713
  153.2411  135.6903  153.7782 H   0  0  0  0  0  0  0  0  0  0  0  0  # atno 10763 bound_to 10752
  153.6911  135.3313  155.3203 H   0  0  0  0  0  0  0  0  0  0  0  0  # atno 10764 bound_to 10752
  154.8356  135.4545  154.1334 H   0  0  0  0  0  0  0  0  0  0  0  0  # atno 10765 bound_to 10752
  141.1433  133.8047  157.0476 H   0  0  0  0  0  0  0  0  0  0  0  0  # atno 11005 bound_to 11000
  145.0867  140.9257  143.4793 LP  0  0  0  0  0  0  0  0  0  0  0  0  # atno 17320 bound_to 7965
  145.0813  139.2958  143.5782 LP  0  0  0  0  0  0  0  0  0  0  0  0  # atno 17321 bound_to 7965
  140.2198  143.3818  152.1652 LP  0  0  0  0  0  0  0  0  0  0  0  0  # atno 17342 bound_to 10162
  139.5273  144.7117  151.5184 LP  0  0  0  0  0  0  0  0  0  0  0  0  # atno 17343 bound_to 10162
  156.2744  130.3725  149.7999 LP  0  0  0  0  0  0  0  0  0  0  0  0  # atno 17370 bound_to 10713
  156.5706  130.8423  151.3355 LP  0  0  0  0  0  0  0  0  0  0  0  0  # atno 17371 bound_to 10713
  140.0652  134.9733  157.1374 LP  0  0  0  0  0  0  0  0  0  0  0  0  # atno 17394 bound_to 11000
  140.3790  134.2308  155.7172 LP  0  0  0  0  0  0  0  0  0  0  0  0  # atno 17395 bound_to 11000

$$$$
