AV-unprocessed.smi:3292|AV-procd|sdf|12628|dock2
  -GOLD-   2272018563D 1   1.00000     0.00000
 Structure written by MMmdl.
 38 39  0  0  0  0  0  0  0  0  1 V2000
  143.9785  137.3561  152.8587 C   0  0  0  0  0  0  0  0  0  0  0  0
  144.8739  136.1474  152.5409 C   0  0  1  0  0  0  0  0  0  0  0  0
  144.8762  135.7686  151.0439 C   0  0  0  0  0  0  0  0  0  0  0  0
  145.2188  134.3775  150.8179 N   0  0  0  0  0  0  0  0  0  0  0  0
  146.4385  133.7655  151.0746 C   0  0  0  0  0  0  0  0  0  0  0  0
  146.3030  132.4472  150.7020 C   0  0  0  0  0  0  0  0  0  0  0  0
  145.0172  132.2284  150.2126 N   0  0  0  0  0  0  0  0  0  0  0  0
  144.4349  133.4167  150.3094 C   0  0  0  0  0  0  0  0  0  0  0  0
  146.2357  136.4271  152.9876 N   0  0  0  0  0  0  0  0  0  0  0  0
  146.5622  137.0023  154.1538 C   0  0  0  0  0  0  0  0  0  0  0  0
  145.7412  137.3811  154.9893 O   0  0  0  0  0  0  0  0  0  0  0  0
  147.8904  137.1035  154.3043 N   0  0  0  0  0  0  0  0  0  0  0  0
  148.5683  137.6630  155.4699 C   0  0  0  0  0  0  0  0  0  0  0  0
  149.3669  138.9322  155.1170 C   0  0  1  0  0  0  0  0  0  0  0  0
  149.9060  139.6710  156.3247 C   0  0  0  0  0  0  0  0  0  0  0  0
  150.9811  140.5560  155.7009 C   0  0  0  0  0  0  0  0  0  0  0  0
  151.4753  139.8354  154.5757 O   0  0  0  0  0  0  0  0  0  0  0  0
  150.6565  138.6969  154.3275 C   0  0  0  0  0  0  0  0  0  0  0  0
  142.9334  137.1522  152.6245 H   0  0  0  0  0  0  0  0  0  0  0  0
  144.2824  138.2353  152.2898 H   0  0  0  0  0  0  0  0  0  0  0  0
  144.0268  137.6115  153.9178 H   0  0  0  0  0  0  0  0  0  0  0  0
  144.4890  135.3007  153.1126 H   0  0  0  0  0  0  0  0  0  0  0  0
  143.8975  135.9619  150.6019 H   0  0  0  0  0  0  0  0  0  0  0  0
  145.5918  136.3825  150.4955 H   0  0  0  0  0  0  0  0  0  0  0  0
  147.2775  134.3038  151.4909 H   0  0  0  0  0  0  0  0  0  0  0  0
  147.0264  131.6467  150.7464 H   0  0  0  0  0  0  0  0  0  0  0  0
  143.4127  133.5909  150.0072 H   0  0  0  0  0  0  0  0  0  0  0  0
  146.9829  136.1516  152.3671 H   0  0  0  0  0  0  0  0  0  0  0  0
  148.4795  136.7615  153.5592 H   0  0  0  0  0  0  0  0  0  0  0  0
  147.8046  137.9095  156.2078 H   0  0  0  0  0  0  0  0  0  0  0  0
  149.2137  136.9177  155.9383 H   0  0  0  0  0  0  0  0  0  0  0  0
  148.7301  139.6158  154.5526 H   0  0  0  0  0  0  0  0  0  0  0  0
  149.1433  140.2413  156.8558 H   0  0  0  0  0  0  0  0  0  0  0  0
  150.3609  138.9713  157.0276 H   0  0  0  0  0  0  0  0  0  0  0  0
  150.5455  141.4915  155.3476 H   0  0  0  0  0  0  0  0  0  0  0  0
  151.7796  140.7976  156.4027 H   0  0  0  0  0  0  0  0  0  0  0  0
  151.1796  137.8133  154.6956 H   0  0  0  0  0  0  0  0  0  0  0  0
  150.4768  138.5629  153.2605 H   0  0  0  0  0  0  0  0  0  0  0  0
  1  2  1  0  0  0  0
  1 19  1  0  0  0  0
  1 20  1  0  0  0  0
  1 21  1  0  0  0  0
  2  3  1  0  0  0  0
  2  9  1  0  0  0  0
  2 22  1  0  0  0  0
  3  4  1  0  0  0  0
  3 23  1  0  0  0  0
  3 24  1  0  0  0  0
  4  8  1  0  0  0  0
  4  5  1  0  0  0  0
  5  6  2  0  0  0  0
  5 25  1  0  0  0  0
  6  7  1  0  0  0  0
  6 26  1  0  0  0  0
  7  8  2  0  0  0  0
  8 27  1  0  0  0  0
  9 10  1  0  0  0  0
  9 28  1  0  0  0  0
 10 11  2  0  0  0  0
 10 12  1  0  0  0  0
 12 13  1  0  0  0  0
 12 29  1  0  0  0  0
 13 14  1  0  0  0  0
 13 30  1  0  0  0  0
 13 31  1  0  0  0  0
 14 18  1  0  0  0  0
 14 15  1  0  0  0  0
 14 32  1  0  0  0  0
 15 16  1  0  0  0  0
 15 33  1  0  0  0  0
 15 34  1  0  0  0  0
 16 17  1  0  0  0  0
 16 35  1  0  0  0  0
 16 36  1  0  0  0  0
 17 18  1  0  0  0  0
 18 37  1  0  0  0  0
 18 38  1  0  0  0  0
M  END
> <s_m_source_file>
AV-unprocessed.smi

> <i_m_source_file_index>
3292

> <i_lp_mmshare_version>
43012

> <i_f3d_flags>
0

> <s_epik_input>
W2NIXTFuW2NIXVtjSF1uMVtDSDJdW0NAQEhdKFtDSDNdKVtOSF1DKD1PKVtOSF1bQ0gyXVtDQEBIXTJbQ0gyXVtDSDJdT1tDSDJdMg==

> <s_epik_cmdline>
J2VwaWtfcHl0aG9uJywgJy1waCcsICc3LjAnLCAnLXRuJywgJzgnLCAnLW1hJywgJzIwMCcsICctbWV0YWxfYmluZGluZycsICctaW1hZScsICc8aW5maWxlLm1hZT4nLCAnLW9tYWUnLCAnPG91dGZpbGUubWFlPic=

> <r_lp_tautomer_probability>
1

> <r_epik_Ionization_Penalty>
0.621291

> <r_epik_Ionization_Penalty_Charging>
0.621234

> <r_epik_Ionization_Penalty_Neutral>
5.72199e-05

> <r_epik_State_Penalty>
0.637278

> <r_epik_Charging_Adjusted_Penalty>
1.25851

> <i_epik_Tot_Q>
0

> <i_epik_Tot_abs_Q>
0

> <r_epik_Metal_State_Penalty>
0.306757

> <b_epik_Metal_Only>
0

> <s_lp_Force_Field>
OPLS_2005

> <r_lp_Energy>
18.205

> <b_lp_Chiralities_Consistent>
1

> <s_lp_Variant>
AV-unprocessed.smi:3292-8

> <Gold.Version>
5.8.1

> <Gold.Id.Protein>
6NUR|6NUR_protein|mol2

> <Gold.PLP.Fitness>
43.9758

> <Gold.PLP.PLP>
-26.8580

> <Gold.PLP.part.hbond>
-3.0000

> <Gold.PLP.part.metal>
0.0000

> <Gold.PLP.part.buried>
-3.0069

> <Gold.PLP.part.nonpolar>
-21.4496

> <Gold.PLP.part.repulsive>
0.2534

> <Gold.PLP.ligand.clash>
0.0000

> <Gold.PLP.ligand.torsion>
0.5252

> <Gold.PLP.Chemscore.Hbond>
3.0000

> <Gold.PLP.Chemscore.CHOScore>
3.0000

> <Gold.PLP.Chemscore.Metal>
0.0000

> <Gold.Chemscore.Hbonds>
donor molecule, donor type, donor heavy atom, donor atom, acceptor molecule, acceptor atom, score
      L1  H     9    28       P1  7948  1.00
      L1  H    12    29       P1  7948  1.00
      P1  H  7989  7998       L1    17  0.91
      L1  C     5    25       P1  7948  1.00
      L1  C     6    26       P1 10747  1.00
      L1  C     8    27       P1 10186  0.86

> <Gold.PLP.Chemscore.Internal.Correction>
0.1682

> <Gold.Rescore>
     Score         DG    S(hbond)    S(metal)    S(lipo)     H(rot)  DE(clash)    DE(int)     intcor
     13.33     -15.24       2.79        0.00      51.11       2.16       0.09       1.82       ----

> <Gold.Chemscore.Fitness>
13.3325

> <Gold.Chemscore.DG>
-15.2390

> <Gold.Chemscore.ZeroCoef>
-5.4800

> <Gold.Chemscore.Hbond>
2.7852

> <Gold.Chemscore.Metal>
0.0000

> <Gold.Chemscore.Lipo>
51.1126

> <Gold.Chemscore.Internal_Hbond>
0.0000

> <Gold.Chemscore.DEClash>
0.0905

> <Gold.Chemscore.DEInternal>
1.8160

> <Gold.Chemscore.Rot>
2.1577

> <Gold.Chemscore.Internal.Correction>
   9.000000E+99

> <Gold.Chemscore.Hbonds>
donor molecule, donor type, donor heavy atom, donor atom, acceptor molecule, acceptor atom, score
      L1  H     9    28       P1  7948  0.89
      L1  H    12    29       P1  7948  0.99
      P1  H  7989  7998       L1    17  0.43

> <Gold.Chemscore.Hbond.Weighted>
-9.3025

> <Gold.Chemscore.Metal.Weighted>
-0.0000

> <Gold.Chemscore.Lipo.Weighted>
-5.9802

> <Gold.Chemscore.Internal_Hbond.Weighted>
0.0000

> <Gold.Chemscore.DEClash.Weighted>
0.0905

> <Gold.Chemscore.DEInternal.Weighted>
1.8160

> <Gold.Chemscore.Rot.Weighted>
5.5237

> <Gold.Chemscore.Internal.Correction.Weighted>
   9.000000E+99

> <Gold.Protein.RotatedTorsions>
[ 6907 6896 6895 6894 ] final -105.77 input  -60.11 | X-H torsion
[ 7974 7965 7964 7962 ] final   20.66 input  175.53 | X-H torsion
[ 8008 7997 7996 7995 ] final   70.07 input   59.86 | X-H torsion
[ 10167 10162 10161 10158 ] final  123.45 input  -65.29 | X-H torsion
[ 10718 10713 10712 10709 ] final   91.30 input   66.30 | X-H torsion
[ 10763 10752 10751 10750 ] final   44.79 input  -60.55 | X-H torsion
[ 11005 11000 10999 10996 ] final -116.88 input  -57.11 | X-H torsion

> <Gold.Protein.ActiveResidues>
 VAL166  LYS551  ARG553  GLY616  TRP617  ASP618  TYR619  PRO620  LYS621  CYS622 
 ASP623  PHE694  ASN695  SER759  ASP760  ASP761  ALA762  ILE779  LEU786  VAL792 
 PHE793  MET794  SER795  GLU796  ALA797  LYS798  CYS799  TRP800  GLU811  SER814 

> <Gold.Protein.RotatedAtoms>
  150.7354  134.0077  159.3658 H   0  0  0  0  0  0  0  0  0  0  0  0  # atno 6907 bound_to 6896
  151.8034  135.0700  160.0413 H   0  0  0  0  0  0  0  0  0  0  0  0  # atno 6908 bound_to 6896
  152.3124  133.5730  159.5726 H   0  0  0  0  0  0  0  0  0  0  0  0  # atno 6909 bound_to 6896
  146.2102  139.8137  142.8694 H   0  0  0  0  0  0  0  0  0  0  0  0  # atno 7974 bound_to 7965
  155.7332  140.3491  155.5069 H   0  0  0  0  0  0  0  0  0  0  0  0  # atno 8008 bound_to 7997
  155.9163  140.1059  157.1262 H   0  0  0  0  0  0  0  0  0  0  0  0  # atno 8009 bound_to 7997
  154.4063  140.1258  156.4609 H   0  0  0  0  0  0  0  0  0  0  0  0  # atno 8010 bound_to 7997
  139.5799  144.6981  151.3556 H   0  0  0  0  0  0  0  0  0  0  0  0  # atno 10167 bound_to 10162
  157.6960  131.0402  150.3709 H   0  0  0  0  0  0  0  0  0  0  0  0  # atno 10718 bound_to 10713
  152.9835  135.6060  154.3331 H   0  0  0  0  0  0  0  0  0  0  0  0  # atno 10763 bound_to 10752
  154.3033  135.2772  155.2602 H   0  0  0  0  0  0  0  0  0  0  0  0  # atno 10764 bound_to 10752
  154.4845  135.5908  153.6469 H   0  0  0  0  0  0  0  0  0  0  0  0  # atno 10765 bound_to 10752
  141.0393  133.9861  157.3021 H   0  0  0  0  0  0  0  0  0  0  0  0  # atno 11005 bound_to 11000
  145.3169  141.0234  143.3523 LP  0  0  0  0  0  0  0  0  0  0  0  0  # atno 17320 bound_to 7965
  144.8895  139.4793  143.6684 LP  0  0  0  0  0  0  0  0  0  0  0  0  # atno 17321 bound_to 7965
  140.7078  143.7469  150.7513 LP  0  0  0  0  0  0  0  0  0  0  0  0  # atno 17342 bound_to 10162
  140.0998  143.4798  152.2431 LP  0  0  0  0  0  0  0  0  0  0  0  0  # atno 17343 bound_to 10162
  156.4134  130.3938  149.6875 LP  0  0  0  0  0  0  0  0  0  0  0  0  # atno 17370 bound_to 10713
  156.4152  130.7741  151.2756 LP  0  0  0  0  0  0  0  0  0  0  0  0  # atno 17371 bound_to 10713
  139.9263  135.0201  156.8247 LP  0  0  0  0  0  0  0  0  0  0  0  0  # atno 17394 bound_to 11000
  140.6265  133.9945  155.7642 LP  0  0  0  0  0  0  0  0  0  0  0  0  # atno 17395 bound_to 11000

$$$$
