AV-unprocessed.smi:67|AV-procd|sdf|638|dock9
  -GOLD-   2262016533D 1   1.00000     0.00000
 Structure written by MMmdl.
 48 50  0  0  0  0  0  0  0  0  2 V2000
  148.5586  136.4883  154.5420 O   0  0  0  0  0  0  0  0  0  0  0  0
  149.5610  136.2403  155.5090 C   0  0  2  0  0  0  0  0  0  0  0  0
  150.0883  137.5916  156.0614 C   0  0  0  0  0  0  0  0  0  0  0  0
  151.0801  137.4750  157.1684 N   0  3  2  0  0  0  0  0  0  0  0  0
  150.8073  138.4556  158.2529 C   0  0  0  0  0  0  0  0  0  0  0  0
  151.7427  138.2513  159.4569 C   0  0  0  0  0  0  0  0  0  0  0  0
  153.2247  138.3132  159.0409 C   0  0  2  0  0  0  0  0  0  0  0  0
  153.5769  139.6093  158.5613 O   0  0  0  0  0  0  0  0  0  0  0  0
  153.3749  140.7199  159.3552 C   0  0  0  0  0  0  0  0  0  0  0  0
  153.8397  140.6368  160.6833 C   0  0  0  0  0  0  0  0  0  0  0  0
  153.6788  141.7153  161.5723 C   0  0  0  0  0  0  0  0  0  0  0  0
  153.0450  142.8947  161.1413 C   0  0  0  0  0  0  0  0  0  0  0  0
  152.5666  142.9981  159.8177 C   0  0  0  0  0  0  0  0  0  0  0  0
  151.8846  144.2677  159.3300 C   0  0  0  0  0  0  0  0  0  0  0  0
  150.6054  144.0204  159.0466 F   0  0  0  0  0  0  0  0  0  0  0  0
  151.9302  145.2355  160.2463 F   0  0  0  0  0  0  0  0  0  0  0  0
  152.4940  144.6956  158.2251 F   0  0  0  0  0  0  0  0  0  0  0  0
  152.7374  141.9132  158.9306 C   0  0  0  0  0  0  0  0  0  0  0  0
  153.4663  137.3147  157.9008 C   0  0  0  0  0  0  0  0  0  0  0  0
  152.4989  137.5390  156.7256 C   0  0  0  0  0  0  0  0  0  0  0  0
  150.6617  135.3141  154.9526 C   0  0  0  0  0  0  0  0  0  0  0  0
  150.4347  133.9730  155.6473 C   0  0  0  0  0  0  0  0  0  0  0  0
  149.8102  134.3093  156.9150 N   0  0  0  0  0  0  0  0  0  0  0  0
  148.8928  135.3987  156.6170 C   0  0  0  0  0  0  0  0  0  0  0  0
  148.8549  136.1595  153.7067 H   0  0  0  0  0  0  0  0  0  0  0  0
  150.4888  138.2160  155.2609 H   0  0  0  0  0  0  0  0  0  0  0  0
  149.2244  138.1318  156.4523 H   0  0  0  0  0  0  0  0  0  0  0  0
  150.9134  139.4690  157.8621 H   0  0  0  0  0  0  0  0  0  0  0  0
  149.7752  138.3552  158.5911 H   0  0  0  0  0  0  0  0  0  0  0  0
  151.5208  138.9940  160.2225 H   0  0  0  0  0  0  0  0  0  0  0  0
  151.5369  137.2808  159.9104 H   0  0  0  0  0  0  0  0  0  0  0  0
  153.8725  138.0229  159.8683 H   0  0  0  0  0  0  0  0  0  0  0  0
  154.3266  139.7350  161.0248 H   0  0  0  0  0  0  0  0  0  0  0  0
  154.0425  141.6378  162.5863 H   0  0  0  0  0  0  0  0  0  0  0  0
  152.9315  143.7159  161.8332 H   0  0  0  0  0  0  0  0  0  0  0  0
  152.3702  142.0262  157.9227 H   0  0  0  0  0  0  0  0  0  0  0  0
  154.4978  137.3880  157.5539 H   0  0  0  0  0  0  0  0  0  0  0  0
  153.3434  136.2984  158.2781 H   0  0  0  0  0  0  0  0  0  0  0  0
  152.7037  136.7723  155.9819 H   0  0  0  0  0  0  0  0  0  0  0  0
  152.6929  138.5023  156.2514 H   0  0  0  0  0  0  0  0  0  0  0  0
  150.6394  135.2238  153.8657 H   0  0  0  0  0  0  0  0  0  0  0  0
  151.6521  135.6792  155.2264 H   0  0  0  0  0  0  0  0  0  0  0  0
  149.7548  133.3610  155.0528 H   0  0  0  0  0  0  0  0  0  0  0  0
  151.3578  133.4092  155.7830 H   0  0  0  0  0  0  0  0  0  0  0  0
  150.5276  134.6544  157.5445 H   0  0  0  0  0  0  0  0  0  0  0  0
  148.6585  135.9800  157.5092 H   0  0  0  0  0  0  0  0  0  0  0  0
  147.9517  134.9749  156.2616 H   0  0  0  0  0  0  0  0  0  0  0  0
  150.9432  136.5607  157.5752 H   0  0  0  0  0  0  0  0  0  0  0  0
  1  2  1  0  0  0  0
  1 25  1  0  0  0  0
  2 24  1  0  0  0  0
  2  3  1  0  0  0  0
  2 21  1  0  0  0  0
  3  4  1  0  0  0  0
  3 26  1  0  0  0  0
  3 27  1  0  0  0  0
  4 20  1  0  0  0  0
  4  5  1  0  0  0  0
  4 48  1  0  0  0  0
  5  6  1  0  0  0  0
  5 28  1  0  0  0  0
  5 29  1  0  0  0  0
  6  7  1  0  0  0  0
  6 30  1  0  0  0  0
  6 31  1  0  0  0  0
  7  8  1  0  0  0  0
  7 19  1  0  0  0  0
  7 32  1  0  0  0  0
  8  9  1  0  0  0  0
  9 18  1  0  0  0  0
  9 10  2  0  0  0  0
 10 11  1  0  0  0  0
 10 33  1  0  0  0  0
 11 12  2  0  0  0  0
 11 34  1  0  0  0  0
 12 13  1  0  0  0  0
 12 35  1  0  0  0  0
 13 14  1  0  0  0  0
 13 18  2  0  0  0  0
 14 15  1  0  0  0  0
 14 16  1  0  0  0  0
 14 17  1  0  0  0  0
 18 36  1  0  0  0  0
 19 20  1  0  0  0  0
 19 37  1  0  0  0  0
 19 38  1  0  0  0  0
 20 39  1  0  0  0  0
 20 40  1  0  0  0  0
 21 22  1  0  0  0  0
 21 41  1  0  0  0  0
 21 42  1  0  0  0  0
 22 23  1  0  0  0  0
 22 43  1  0  0  0  0
 22 44  1  0  0  0  0
 23 24  1  0  0  0  0
 23 45  1  0  0  0  0
 24 46  1  0  0  0  0
 24 47  1  0  0  0  0
M  CHG  1   4   1
M  END
> <s_m_source_file>
AV-unprocessed.smi

> <i_m_source_file_index>
67

> <i_lp_mmshare_version>
43012

> <i_f3d_flags>
0

> <s_epik_input>
W0NIMl0xW05IXVtDSDJdW0NIMl1bQ0BAXTEoW09IXSlbQ0gyXU4yW0NIMl1bQ0gyXVtDSF0oW0NIMl1bQ0gyXTIpT2MzW2NIXVtjSF1bY0hdYyhDKEYpKEYpRilbY0hdMw==

> <s_epik_cmdline>
J2VwaWtfcHl0aG9uJywgJy1waCcsICc3LjAnLCAnLXRuJywgJzgnLCAnLW1hJywgJzIwMCcsICctbWV0YWxfYmluZGluZycsICctaW1hZScsICc8aW5maWxlLm1hZT4nLCAnLW9tYWUnLCAnPG91dGZpbGUubWFlPic=

> <r_epik_Ionization_Penalty>
2.37709

> <r_epik_Ionization_Penalty_Charging>
0.0305656

> <r_epik_Ionization_Penalty_Neutral>
2.34653

> <r_epik_State_Penalty>
2.56959

> <r_epik_Charging_Adjusted_Penalty>
2.60016

> <i_epik_Tot_Q>
1

> <i_epik_Tot_abs_Q>
1

> <r_epik_Metal_State_Penalty>
2.56925

> <b_epik_Metal_Only>
0

> <s_lp_Force_Field>
OPLS_2005

> <r_lp_Energy>
52.4549

> <b_lp_Chiralities_Consistent>
1

> <s_lp_Variant>
AV-unprocessed.smi:67-10

> <Gold.Version>
5.8.1

> <Gold.Id.Protein>
6NUR|6NUR_protein|mol2

> <Gold.PLP.Fitness>
52.1400

> <Gold.PLP.PLP>
-47.3399

> <Gold.PLP.part.hbond>
-2.0000

> <Gold.PLP.part.metal>
0.0000

> <Gold.PLP.part.buried>
-6.2518

> <Gold.PLP.part.nonpolar>
-39.5202

> <Gold.PLP.part.repulsive>
0.0539

> <Gold.PLP.ligand.clash>
0.2620

> <Gold.PLP.ligand.torsion>
0.7946

> <Gold.PLP.Chemscore.Hbond>
2.0000

> <Gold.PLP.Chemscore.CHOScore>
0.0000

> <Gold.PLP.Chemscore.Metal>
0.0000

> <Gold.Chemscore.Hbonds>
donor molecule, donor type, donor heavy atom, donor atom, acceptor molecule, acceptor atom, score
      L1  H     1    25       P1  7948  1.00
      P1  H  7997  8009       L1     8  1.00

> <Gold.PLP.Chemscore.Internal.Correction>
0.6513

> <Gold.Rescore>
     Score         DG    S(hbond)    S(metal)    S(lipo)     H(rot)  DE(clash)    DE(int)     intcor
     19.21     -20.02       1.91        0.00     117.38       2.17       0.06       0.75       ----

> <Gold.Chemscore.Fitness>
19.2098

> <Gold.Chemscore.DG>
-20.0228

> <Gold.Chemscore.ZeroCoef>
-5.4800

> <Gold.Chemscore.Hbond>
1.9083

> <Gold.Chemscore.Metal>
0.0000

> <Gold.Chemscore.Lipo>
117.3761

> <Gold.Chemscore.Internal_Hbond>
0.0000

> <Gold.Chemscore.DEClash>
0.0581

> <Gold.Chemscore.DEInternal>
0.7549

> <Gold.Chemscore.Rot>
2.1734

> <Gold.Chemscore.Internal.Correction>
   9.000000E+99

> <Gold.Chemscore.Hbonds>
donor molecule, donor type, donor heavy atom, donor atom, acceptor molecule, acceptor atom, score
      L1  H     1    25       P1  7948  0.96
      P1  H  7997  8009       L1     8  0.79

> <Gold.Chemscore.Hbond.Weighted>
-6.3738

> <Gold.Chemscore.Metal.Weighted>
-0.0000

> <Gold.Chemscore.Lipo.Weighted>
-13.7330

> <Gold.Chemscore.Internal_Hbond.Weighted>
0.0000

> <Gold.Chemscore.DEClash.Weighted>
0.0581

> <Gold.Chemscore.DEInternal.Weighted>
0.7549

> <Gold.Chemscore.Rot.Weighted>
5.5640

> <Gold.Chemscore.Internal.Correction.Weighted>
   9.000000E+99

> <Gold.Protein.RotatedTorsions>
[ 6907 6896 6895 6894 ] final  -89.42 input  -60.11 | X-H torsion
[ 7974 7965 7964 7962 ] final -107.29 input  175.53 | X-H torsion
[ 8008 7997 7996 7995 ] final  160.81 input   59.86 | X-H torsion
[ 10167 10162 10161 10158 ] final -137.97 input  -65.29 | X-H torsion
[ 10718 10713 10712 10709 ] final -152.54 input   66.30 | X-H torsion
[ 10763 10752 10751 10750 ] final  117.57 input  -60.55 | X-H torsion
[ 11005 11000 10999 10996 ] final  131.70 input  -57.11 | X-H torsion

> <Gold.Protein.ActiveResidues>
 VAL166  LYS551  ARG553  GLY616  TRP617  ASP618  TYR619  PRO620  LYS621  CYS622 
 ASP623  PHE694  ASN695  SER759  ASP760  ASP761  ALA762  ILE779  LEU786  VAL792 
 PHE793  MET794  SER795  GLU796  ALA797  LYS798  CYS799  TRP800  GLU811  SER814 

> <Gold.Protein.RotatedAtoms>
  150.6874  134.2589  159.4541 H   0  0  0  0  0  0  0  0  0  0  0  0  # atno 6907 bound_to 6896
  152.0521  134.9644  160.0584 H   0  0  0  0  0  0  0  0  0  0  0  0  # atno 6908 bound_to 6896
  152.1105  133.4263  159.4665 H   0  0  0  0  0  0  0  0  0  0  0  0  # atno 6909 bound_to 6896
  145.2072  140.9081  143.3335 H   0  0  0  0  0  0  0  0  0  0  0  0  # atno 7974 bound_to 7965
  156.2147  140.1794  156.7616 H   0  0  0  0  0  0  0  0  0  0  0  0  # atno 8008 bound_to 7997
  154.5773  140.0672  156.9082 H   0  0  0  0  0  0  0  0  0  0  0  0  # atno 8009 bound_to 7997
  155.2564  140.3332  155.4279 H   0  0  0  0  0  0  0  0  0  0  0  0  # atno 8010 bound_to 7997
  139.8525  143.7181  152.2657 H   0  0  0  0  0  0  0  0  0  0  0  0  # atno 10167 bound_to 10162
  156.4738  130.8271  151.2500 H   0  0  0  0  0  0  0  0  0  0  0  0  # atno 10718 bound_to 10713
  153.5545  135.3533  155.2773 H   0  0  0  0  0  0  0  0  0  0  0  0  # atno 10763 bound_to 10752
  154.8703  135.4121  154.2900 H   0  0  0  0  0  0  0  0  0  0  0  0  # atno 10764 bound_to 10752
  153.3633  135.7061  153.6764 H   0  0  0  0  0  0  0  0  0  0  0  0  # atno 10765 bound_to 10752
  139.9746  134.9567  156.9476 H   0  0  0  0  0  0  0  0  0  0  0  0  # atno 11005 bound_to 11000
  144.9891  139.3707  143.6224 LP  0  0  0  0  0  0  0  0  0  0  0  0  # atno 17320 bound_to 7965
  146.3405  139.9065  142.8786 LP  0  0  0  0  0  0  0  0  0  0  0  0  # atno 17321 bound_to 7965
  139.7452  144.7549  151.0591 LP  0  0  0  0  0  0  0  0  0  0  0  0  # atno 17342 bound_to 10162
  140.7786  143.4925  150.9875 LP  0  0  0  0  0  0  0  0  0  0  0  0  # atno 17343 bound_to 10162
  157.7489  131.0067  150.3163 LP  0  0  0  0  0  0  0  0  0  0  0  0  # atno 17370 bound_to 10713
  156.3591  130.3844  149.7266 LP  0  0  0  0  0  0  0  0  0  0  0  0  # atno 17371 bound_to 10713
  140.5222  134.0896  155.7295 LP  0  0  0  0  0  0  0  0  0  0  0  0  # atno 17394 bound_to 11000
  141.1423  133.9116  157.2296 LP  0  0  0  0  0  0  0  0  0  0  0  0  # atno 17395 bound_to 11000

$$$$
