AV-unprocessed.smi:431|AV-procd|sdf|2547|dock5
  -GOLD-   2262022513D 1   1.00000     0.00000
 Structure written by MMmdl.
 43 44  0  0  0  0  0  0  0  0  1 V2000
  154.8383  144.6656  165.9943 C   0  0  0  0  0  0  0  0  0  0  0  0
  155.1758  143.6405  164.8996 C   0  0  0  0  0  0  0  0  0  0  0  0
  154.8652  142.1755  165.2802 C   0  0  2  0  0  0  0  0  0  0  0  0
  155.4304  141.8366  166.6700 C   0  0  0  0  0  0  0  0  0  0  0  0
  155.4037  141.1864  164.2357 C   0  0  0  0  0  0  0  0  0  0  0  0
  156.2458  140.3457  164.5528 O   0  0  0  0  0  0  0  0  0  0  0  0
  154.9193  141.3078  162.9898 N   0  0  0  0  0  0  0  0  0  0  0  0
  155.3394  140.5006  161.8493 C   0  0  0  0  0  0  0  0  0  0  0  0
  154.3557  140.5113  160.6880 C   0  0  0  0  0  0  0  0  0  0  0  0
  153.2945  141.4376  160.6184 C   0  0  0  0  0  0  0  0  0  0  0  0
  152.4200  141.3943  159.5162 C   0  0  0  0  0  0  0  0  0  0  0  0
  152.6256  140.4220  158.5082 C   0  0  0  0  0  0  0  0  0  0  0  0
  151.7656  140.3635  157.3892 N   0  0  0  0  0  0  0  0  0  0  0  0
  151.2815  141.6498  156.8931 C   0  0  0  0  0  0  0  0  0  0  0  0
  150.1338  141.4406  155.8902 C   0  0  0  0  0  0  0  0  0  0  0  0
  150.5573  140.5703  154.8462 O   0  0  0  0  0  0  0  0  0  0  0  0
  150.9150  139.2848  155.3424 C   0  0  0  0  0  0  0  0  0  0  0  0
  152.0923  139.4177  156.3231 C   0  0  0  0  0  0  0  0  0  0  0  0
  153.6374  139.5226  158.5888 N   0  0  0  0  0  0  0  0  0  0  0  0
  154.4741  139.5697  159.6468 C   0  0  0  0  0  0  0  0  0  0  0  0
  155.1547  145.6651  165.6963 H   0  0  0  0  0  0  0  0  0  0  0  0
  155.3424  144.4235  166.9300 H   0  0  0  0  0  0  0  0  0  0  0  0
  153.7669  144.7089  166.1904 H   0  0  0  0  0  0  0  0  0  0  0  0
  154.6510  143.9083  163.9813 H   0  0  0  0  0  0  0  0  0  0  0  0
  156.2382  143.7257  164.6686 H   0  0  0  0  0  0  0  0  0  0  0  0
  153.7807  142.0639  165.3317 H   0  0  0  0  0  0  0  0  0  0  0  0
  155.2274  140.7994  166.9403 H   0  0  0  0  0  0  0  0  0  0  0  0
  154.9797  142.4661  167.4376 H   0  0  0  0  0  0  0  0  0  0  0  0
  156.5099  141.9872  166.7124 H   0  0  0  0  0  0  0  0  0  0  0  0
  154.2267  142.0216  162.8159 H   0  0  0  0  0  0  0  0  0  0  0  0
  156.3230  140.8289  161.5084 H   0  0  0  0  0  0  0  0  0  0  0  0
  155.4580  139.4709  162.1866 H   0  0  0  0  0  0  0  0  0  0  0  0
  153.1450  142.1718  161.3962 H   0  0  0  0  0  0  0  0  0  0  0  0
  151.5992  142.0937  159.4661 H   0  0  0  0  0  0  0  0  0  0  0  0
  150.9307  142.2900  157.7009 H   0  0  0  0  0  0  0  0  0  0  0  0
  152.1078  142.1732  156.4099 H   0  0  0  0  0  0  0  0  0  0  0  0
  149.2537  141.0287  156.3875 H   0  0  0  0  0  0  0  0  0  0  0  0
  149.8361  142.3958  155.4573 H   0  0  0  0  0  0  0  0  0  0  0  0
  150.0560  138.8168  155.8264 H   0  0  0  0  0  0  0  0  0  0  0  0
  151.1949  138.6461  154.5046 H   0  0  0  0  0  0  0  0  0  0  0  0
  152.9813  139.7633  155.7938 H   0  0  0  0  0  0  0  0  0  0  0  0
  152.3223  138.4379  156.7439 H   0  0  0  0  0  0  0  0  0  0  0  0
  155.2642  138.8333  159.6583 H   0  0  0  0  0  0  0  0  0  0  0  0
  1  2  1  0  0  0  0
  1 21  1  0  0  0  0
  1 22  1  0  0  0  0
  1 23  1  0  0  0  0
  2  3  1  0  0  0  0
  2 24  1  0  0  0  0
  2 25  1  0  0  0  0
  3  4  1  0  0  0  0
  3  5  1  0  0  0  0
  3 26  1  0  0  0  0
  4 27  1  0  0  0  0
  4 28  1  0  0  0  0
  4 29  1  0  0  0  0
  5  6  2  0  0  0  0
  5  7  1  0  0  0  0
  7  8  1  0  0  0  0
  7 30  1  0  0  0  0
  8  9  1  0  0  0  0
  8 31  1  0  0  0  0
  8 32  1  0  0  0  0
  9 20  1  0  0  0  0
  9 10  2  0  0  0  0
 10 11  1  0  0  0  0
 10 33  1  0  0  0  0
 11 12  2  0  0  0  0
 11 34  1  0  0  0  0
 12 13  1  0  0  0  0
 12 19  1  0  0  0  0
 13 18  1  0  0  0  0
 13 14  1  0  0  0  0
 14 15  1  0  0  0  0
 14 35  1  0  0  0  0
 14 36  1  0  0  0  0
 15 16  1  0  0  0  0
 15 37  1  0  0  0  0
 15 38  1  0  0  0  0
 16 17  1  0  0  0  0
 17 18  1  0  0  0  0
 17 39  1  0  0  0  0
 17 40  1  0  0  0  0
 18 41  1  0  0  0  0
 18 42  1  0  0  0  0
 19 20  2  0  0  0  0
 20 43  1  0  0  0  0
M  END
> <s_m_source_file>
AV-unprocessed.smi

> <i_m_source_file_index>
431

> <i_lp_mmshare_version>
43012

> <i_f3d_flags>
0

> <s_epik_input>
W0NIM11bQ0gyXVtDQEhdKFtDSDNdKUMoPU8pW05IXVtDSDJdYzFbY0hdW2NIXWMobltjSF0xKU4yW0NIMl1bQ0gyXU9bQ0gyXVtDSDJdMg==

> <s_epik_cmdline>
J2VwaWtfcHl0aG9uJywgJy1waCcsICc3LjAnLCAnLXRuJywgJzgnLCAnLW1hJywgJzIwMCcsICctbWV0YWxfYmluZGluZycsICctaW1hZScsICc8aW5maWxlLm1hZT4nLCAnLW9tYWUnLCAnPG91dGZpbGUubWFlPic=

> <r_lp_tautomer_probability>
1

> <r_epik_Ionization_Penalty>
0.00513882

> <r_epik_Ionization_Penalty_Charging>
0

> <r_epik_Ionization_Penalty_Neutral>
0.00513882

> <r_epik_State_Penalty>
0.00374265

> <r_epik_Charging_Adjusted_Penalty>
0.00374265

> <i_epik_Tot_Q>
0

> <i_epik_Tot_abs_Q>
0

> <r_epik_Metal_State_Penalty>
-0

> <b_epik_Metal_Only>
0

> <s_lp_Force_Field>
OPLS_2005

> <r_lp_Energy>
15.574

> <b_lp_Chiralities_Consistent>
1

> <s_lp_Variant>
AV-unprocessed.smi:431-1

> <Gold.Version>
5.8.1

> <Gold.Id.Protein>
6NUR|6NUR_protein|mol2

> <Gold.PLP.Fitness>
43.5909

> <Gold.PLP.PLP>
-38.6753

> <Gold.PLP.part.hbond>
-3.0000

> <Gold.PLP.part.metal>
0.0000

> <Gold.PLP.part.buried>
-0.2776

> <Gold.PLP.part.nonpolar>
-33.4644

> <Gold.PLP.part.repulsive>
0.0873

> <Gold.PLP.ligand.clash>
0.0000

> <Gold.PLP.ligand.torsion>
0.7291

> <Gold.PLP.Chemscore.Hbond>
1.9920

> <Gold.PLP.Chemscore.CHOScore>
0.0000

> <Gold.PLP.Chemscore.Metal>
0.0000

> <Gold.Chemscore.Hbonds>
donor molecule, donor type, donor heavy atom, donor atom, acceptor molecule, acceptor atom, score
      P1  H  7989  7998       L1    16  0.98
      P1  H  7997  8008       L1    19  1.00

> <Gold.PLP.Chemscore.Internal.Correction>
0.3977

> <Gold.Rescore>
     Score         DG    S(hbond)    S(metal)    S(lipo)     H(rot)  DE(clash)    DE(int)     intcor
     13.59     -16.79       1.01        0.00     103.67       1.64       1.99       1.21       ----

> <Gold.Chemscore.Fitness>
13.5913

> <Gold.Chemscore.DG>
-16.7925

> <Gold.Chemscore.ZeroCoef>
-5.4800

> <Gold.Chemscore.Hbond>
1.0130

> <Gold.Chemscore.Metal>
0.0000

> <Gold.Chemscore.Lipo>
103.6697

> <Gold.Chemscore.Internal_Hbond>
0.0000

> <Gold.Chemscore.DEClash>
1.9917

> <Gold.Chemscore.DEInternal>
1.2096

> <Gold.Chemscore.Rot>
1.6407

> <Gold.Chemscore.Internal.Correction>
   9.000000E+99

> <Gold.Chemscore.Hbonds>
donor molecule, donor type, donor heavy atom, donor atom, acceptor molecule, acceptor atom, score
      P1  H  7989  7998       L1    16  0.52
      P1  H  7997  8008       L1    19  0.14

> <Gold.Chemscore.Hbond.Weighted>
-3.3833

> <Gold.Chemscore.Metal.Weighted>
-0.0000

> <Gold.Chemscore.Lipo.Weighted>
-12.1294

> <Gold.Chemscore.Internal_Hbond.Weighted>
0.0000

> <Gold.Chemscore.DEClash.Weighted>
1.9917

> <Gold.Chemscore.DEInternal.Weighted>
1.2096

> <Gold.Chemscore.Rot.Weighted>
4.2001

> <Gold.Chemscore.Internal.Correction.Weighted>
   9.000000E+99

> <Gold.Protein.RotatedTorsions>
[ 6907 6896 6895 6894 ] final   43.46 input  -60.11 | X-H torsion
[ 7974 7965 7964 7962 ] final   90.61 input  175.53 | X-H torsion
[ 8008 7997 7996 7995 ] final  -96.87 input   59.86 | X-H torsion
[ 10167 10162 10161 10158 ] final  -67.66 input  -65.29 | X-H torsion
[ 10718 10713 10712 10709 ] final -126.27 input   66.30 | X-H torsion
[ 10763 10752 10751 10750 ] final  102.70 input  -60.55 | X-H torsion
[ 11005 11000 10999 10996 ] final  154.58 input  -57.11 | X-H torsion

> <Gold.Protein.ActiveResidues>
 VAL166  LYS551  ARG553  GLY616  TRP617  ASP618  TYR619  PRO620  LYS621  CYS622 
 ASP623  PHE694  ASN695  SER759  ASP760  ASP761  ALA762  ILE779  LEU786  VAL792 
 PHE793  MET794  SER795  GLU796  ALA797  LYS798  CYS799  TRP800  GLU811  SER814 

> <Gold.Protein.RotatedAtoms>
  152.2205  134.8417  160.0486 H   0  0  0  0  0  0  0  0  0  0  0  0  # atno 6907 bound_to 6896
  151.9202  133.3578  159.3902 H   0  0  0  0  0  0  0  0  0  0  0  0  # atno 6908 bound_to 6896
  150.6999  134.4568  159.5406 H   0  0  0  0  0  0  0  0  0  0  0  0  # atno 6909 bound_to 6896
  145.5168  139.2278  143.2694 H   0  0  0  0  0  0  0  0  0  0  0  0  # atno 7974 bound_to 7965
  154.7802  140.0468  157.1121 H   0  0  0  0  0  0  0  0  0  0  0  0  # atno 8008 bound_to 7997
  154.9714  140.3090  155.4966 H   0  0  0  0  0  0  0  0  0  0  0  0  # atno 8009 bound_to 7997
  156.2935  140.2252  156.4807 H   0  0  0  0  0  0  0  0  0  0  0  0  # atno 8010 bound_to 7997
  140.5566  143.2312  151.6810 H   0  0  0  0  0  0  0  0  0  0  0  0  # atno 10167 bound_to 10162
  156.1750  130.6693  151.0230 H   0  0  0  0  0  0  0  0  0  0  0  0  # atno 10718 bound_to 10713
  153.3430  135.4001  155.1587 H   0  0  0  0  0  0  0  0  0  0  0  0  # atno 10763 bound_to 10752
  154.8647  135.3638  154.5321 H   0  0  0  0  0  0  0  0  0  0  0  0  # atno 10764 bound_to 10752
  153.5767  135.7077  153.5540 H   0  0  0  0  0  0  0  0  0  0  0  0  # atno 10765 bound_to 10752
  140.1502  134.8680  157.2444 H   0  0  0  0  0  0  0  0  0  0  0  0  # atno 11005 bound_to 11000
  146.2132  140.5977  142.9050 LP  0  0  0  0  0  0  0  0  0  0  0  0  # atno 17320 bound_to 7965
  144.7698  140.5611  143.6678 LP  0  0  0  0  0  0  0  0  0  0  0  0  # atno 17321 bound_to 7965
  139.5051  144.3731  152.0450 LP  0  0  0  0  0  0  0  0  0  0  0  0  # atno 17342 bound_to 10162
  140.2853  144.3814  150.6105 LP  0  0  0  0  0  0  0  0  0  0  0  0  # atno 17343 bound_to 10162
  157.6829  131.0833  150.7320 LP  0  0  0  0  0  0  0  0  0  0  0  0  # atno 17370 bound_to 10713
  156.7379  130.4730  149.5484 LP  0  0  0  0  0  0  0  0  0  0  0  0  # atno 17371 bound_to 10713
  140.2614  134.3567  155.7405 LP  0  0  0  0  0  0  0  0  0  0  0  0  # atno 17394 bound_to 11000
  141.2198  133.7371  156.9086 LP  0  0  0  0  0  0  0  0  0  0  0  0  # atno 17395 bound_to 11000

$$$$
