AV-unprocessed.smi:2492|AV-procd|sdf|9818|dock9
  -GOLD-   2272013453D 1   1.00000     0.00000
 Structure written by MMmdl.
 32 33  0  0  0  0  0  0  0  0  2 V2000
  150.1524  144.7884  160.1592 C   0  0  0  0  0  0  0  0  0  0  0  0
  151.7709  145.0764  159.3961 S   0  0  0  0  0  0  0  0  0  0  0  0
  152.7012  143.6758  160.0822 C   0  0  1  0  0  0  0  0  0  0  0  0
  152.7100  143.6693  161.6088 C   0  0  0  0  0  0  0  0  0  0  0  0
  153.0734  142.2303  161.9807 C   0  0  0  0  0  0  0  0  0  0  0  0
  152.5626  141.3462  160.8263 C   0  0  2  0  0  0  0  0  0  0  0  0
  153.6178  140.4527  160.3526 N   0  0  0  0  0  0  0  0  0  0  0  0
  153.4705  139.4645  159.4582 C   0  0  0  0  0  0  0  0  0  0  0  0
  152.3661  139.2532  158.9515 O   0  0  0  0  0  0  0  0  0  0  0  0
  154.6117  138.7843  159.2061 N   0  5  0  0  0  0  0  0  0  0  0  0
  154.6449  137.4504  159.3600 C   0  0  0  0  0  0  0  0  0  0  0  0
  155.6221  136.6387  158.9534 N   0  0  0  0  0  0  0  0  0  0  0  0
  155.1542  135.4223  159.3413 C   0  0  0  0  0  0  0  0  0  0  0  0
  155.9038  134.1550  159.1105 C   0  0  0  0  0  0  0  0  0  0  0  0
  153.9715  135.4220  159.9382 N   0  0  0  0  0  0  0  0  0  0  0  0
  153.6220  136.7798  159.9514 O   0  0  0  0  0  0  0  0  0  0  0  0
  152.1023  142.3147  159.7191 C   0  0  0  0  0  0  0  0  0  0  0  0
  149.4382  145.5372  159.8168 H   0  0  0  0  0  0  0  0  0  0  0  0
  150.2228  144.8524  161.2449 H   0  0  0  0  0  0  0  0  0  0  0  0
  149.7747  143.8017  159.8914 H   0  0  0  0  0  0  0  0  0  0  0  0
  153.7308  143.7244  159.7245 H   0  0  0  0  0  0  0  0  0  0  0  0
  153.4051  144.3976  162.0278 H   0  0  0  0  0  0  0  0  0  0  0  0
  151.7142  143.9022  161.9888 H   0  0  0  0  0  0  0  0  0  0  0  0
  154.1574  142.1503  162.0783 H   0  0  0  0  0  0  0  0  0  0  0  0
  152.6435  141.9400  162.9399 H   0  0  0  0  0  0  0  0  0  0  0  0
  151.7129  140.7537  161.1708 H   0  0  0  0  0  0  0  0  0  0  0  0
  154.5397  140.5910  160.7399 H   0  0  0  0  0  0  0  0  0  0  0  0
  155.4715  133.6111  158.2703 H   0  0  0  0  0  0  0  0  0  0  0  0
  155.8618  133.5200  159.9959 H   0  0  0  0  0  0  0  0  0  0  0  0
  156.9504  134.3633  158.8866 H   0  0  0  0  0  0  0  0  0  0  0  0
  151.0132  142.3764  159.7343 H   0  0  0  0  0  0  0  0  0  0  0  0
  152.3893  141.9934  158.7171 H   0  0  0  0  0  0  0  0  0  0  0  0
  1  2  1  0  0  0  0
  1 18  1  0  0  0  0
  1 19  1  0  0  0  0
  1 20  1  0  0  0  0
  2  3  1  0  0  0  0
  3 17  1  0  0  0  0
  3  4  1  0  0  0  0
  3 21  1  0  0  0  0
  4  5  1  0  0  0  0
  4 22  1  0  0  0  0
  4 23  1  0  0  0  0
  5  6  1  0  0  0  0
  5 24  1  0  0  0  0
  5 25  1  0  0  0  0
  6  7  1  0  0  0  0
  6 17  1  0  0  0  0
  6 26  1  0  0  0  0
  7  8  1  0  0  0  0
  7 27  1  0  0  0  0
  8  9  2  0  0  0  0
  8 10  1  0  0  0  0
 10 11  1  0  0  0  0
 11 16  1  0  0  0  0
 11 12  2  0  0  0  0
 12 13  1  0  0  0  0
 13 14  1  0  0  0  0
 13 15  2  0  0  0  0
 14 28  1  0  0  0  0
 14 29  1  0  0  0  0
 14 30  1  0  0  0  0
 15 16  1  0  0  0  0
 17 31  1  0  0  0  0
 17 32  1  0  0  0  0
M  CHG  1  10  -1
M  END
> <s_m_source_file>
AV-unprocessed.smi

> <i_m_source_file_index>
2492

> <i_lp_mmshare_version>
43012

> <i_f3d_flags>
0

> <s_epik_input>
W0NIM11TW0NAQEhdMVtDSDJdW0NIMl1bQ0BIXShbQ0gyXTEpW05IXUMoPU8pW05IXWMybmMoW0NIM10pbm8y

> <s_epik_cmdline>
J2VwaWtfcHl0aG9uJywgJy1waCcsICc3LjAnLCAnLXRuJywgJzgnLCAnLW1hJywgJzIwMCcsICctbWV0YWxfYmluZGluZycsICctaW1hZScsICc8aW5maWxlLm1hZT4nLCAnLW9tYWUnLCAnPG91dGZpbGUubWFlPic=

> <r_lp_tautomer_probability>
1

> <r_epik_Ionization_Penalty>
6.26454

> <r_epik_Ionization_Penalty_Charging>
6.26445

> <r_epik_Ionization_Penalty_Neutral>
9.05726e-05

> <r_epik_State_Penalty>
6.26444

> <r_epik_Charging_Adjusted_Penalty>
12.5289

> <i_epik_Tot_Q>
-1

> <i_epik_Tot_abs_Q>
1

> <r_epik_Metal_State_Penalty>
2.20125

> <b_epik_Metal_Only>
1

> <s_lp_Force_Field>
OPLS_2005

> <r_lp_Energy>
10.5143

> <b_lp_Chiralities_Consistent>
1

> <s_lp_Variant>
AV-unprocessed.smi:2492-8

> <Gold.Version>
5.8.1

> <Gold.Id.Protein>
6NUR|6NUR_protein|mol2

> <Gold.PLP.Fitness>
37.2453

> <Gold.PLP.PLP>
-29.4236

> <Gold.PLP.part.hbond>
-2.0000

> <Gold.PLP.part.metal>
0.0000

> <Gold.PLP.part.buried>
-4.8241

> <Gold.PLP.part.nonpolar>
-22.7078

> <Gold.PLP.part.repulsive>
0.0845

> <Gold.PLP.ligand.clash>
0.0000

> <Gold.PLP.ligand.torsion>
0.6019

> <Gold.PLP.Chemscore.Hbond>
3.0000

> <Gold.PLP.Chemscore.CHOScore>
0.0000

> <Gold.PLP.Chemscore.Metal>
0.0000

> <Gold.Chemscore.Hbonds>
donor molecule, donor type, donor heavy atom, donor atom, acceptor molecule, acceptor atom, score
      P1  H  6896  6908       L1    15  1.00
      P1  H  7997  8009       L1    10  0.52

> <Gold.PLP.Chemscore.Internal.Correction>
0.0255

> <Gold.Rescore>
     Score         DG    S(hbond)    S(metal)    S(lipo)     H(rot)  DE(clash)    DE(int)     intcor
     16.42     -17.20       1.79        0.00      77.02       1.27       0.00       0.79       ----

> <Gold.Chemscore.Fitness>
16.4155

> <Gold.Chemscore.DG>
-17.2038

> <Gold.Chemscore.ZeroCoef>
-5.4800

> <Gold.Chemscore.Hbond>
1.7863

> <Gold.Chemscore.Metal>
0.0000

> <Gold.Chemscore.Lipo>
77.0229

> <Gold.Chemscore.Internal_Hbond>
0.0000

> <Gold.Chemscore.DEClash>
0.0000

> <Gold.Chemscore.DEInternal>
0.7883

> <Gold.Chemscore.Rot>
1.2712

> <Gold.Chemscore.Internal.Correction>
   9.000000E+99

> <Gold.Chemscore.Hbonds>
donor molecule, donor type, donor heavy atom, donor atom, acceptor molecule, acceptor atom, score
      P1  H  6896  6908       L1    15  0.35
      P1  H  7997  8009       L1    10  0.05

> <Gold.Chemscore.Hbond.Weighted>
-5.9663

> <Gold.Chemscore.Metal.Weighted>
-0.0000

> <Gold.Chemscore.Lipo.Weighted>
-9.0117

> <Gold.Chemscore.Internal_Hbond.Weighted>
0.0000

> <Gold.Chemscore.DEClash.Weighted>
0.0000

> <Gold.Chemscore.DEInternal.Weighted>
0.7883

> <Gold.Chemscore.Rot.Weighted>
3.2542

> <Gold.Chemscore.Internal.Correction.Weighted>
   9.000000E+99

> <Gold.Protein.RotatedTorsions>
[ 6907 6896 6895 6894 ] final  -59.49 input  -60.11 | X-H torsion
[ 7974 7965 7964 7962 ] final -126.13 input  175.53 | X-H torsion
[ 8008 7997 7996 7995 ] final  110.40 input   59.86 | X-H torsion
[ 10167 10162 10161 10158 ] final  -42.84 input  -65.29 | X-H torsion
[ 10718 10713 10712 10709 ] final  135.23 input   66.30 | X-H torsion
[ 10763 10752 10751 10750 ] final   48.77 input  -60.55 | X-H torsion
[ 11005 11000 10999 10996 ] final -113.09 input  -57.11 | X-H torsion

> <Gold.Protein.ActiveResidues>
 VAL166  LYS551  ARG553  GLY616  TRP617  ASP618  TYR619  PRO620  LYS621  CYS622 
 ASP623  PHE694  ASN695  SER759  ASP760  ASP761  ALA762  ILE779  LEU786  VAL792 
 PHE793  MET794  SER795  GLU796  ALA797  LYS798  CYS799  TRP800  GLU811  SER814 

> <Gold.Protein.RotatedAtoms>
  150.7926  134.6961  159.6523 H   0  0  0  0  0  0  0  0  0  0  0  0  # atno 6907 bound_to 6896
  152.4034  134.6245  160.0069 H   0  0  0  0  0  0  0  0  0  0  0  0  # atno 6908 bound_to 6896
  151.6509  133.3284  159.3188 H   0  0  0  0  0  0  0  0  0  0  0  0  # atno 6909 bound_to 6896
  144.9904  140.7727  143.4557 H   0  0  0  0  0  0  0  0  0  0  0  0  # atno 7974 bound_to 7965
  156.2050  140.3039  155.9607 H   0  0  0  0  0  0  0  0  0  0  0  0  # atno 8008 bound_to 7997
  155.2864  140.0440  157.3036 H   0  0  0  0  0  0  0  0  0  0  0  0  # atno 8009 bound_to 7997
  154.5621  140.2323  155.8329 H   0  0  0  0  0  0  0  0  0  0  0  0  # atno 8010 bound_to 7997
  140.6955  143.3016  151.3266 H   0  0  0  0  0  0  0  0  0  0  0  0  # atno 10167 bound_to 10162
  157.4591  131.1072  150.9941 H   0  0  0  0  0  0  0  0  0  0  0  0  # atno 10718 bound_to 10713
  152.9790  135.5933  154.3980 H   0  0  0  0  0  0  0  0  0  0  0  0  # atno 10763 bound_to 10752
  154.3628  135.2767  155.2312 H   0  0  0  0  0  0  0  0  0  0  0  0  # atno 10764 bound_to 10752
  154.4302  135.6038  153.6118 H   0  0  0  0  0  0  0  0  0  0  0  0  # atno 10765 bound_to 10752
  141.0635  133.9496  157.2622 H   0  0  0  0  0  0  0  0  0  0  0  0  # atno 11005 bound_to 11000
  145.2293  139.2122  143.5051 LP  0  0  0  0  0  0  0  0  0  0  0  0  # atno 17320 bound_to 7965
  146.3430  140.2167  142.8591 LP  0  0  0  0  0  0  0  0  0  0  0  0  # atno 17321 bound_to 7965
  139.6405  144.0547  152.2551 LP  0  0  0  0  0  0  0  0  0  0  0  0  # atno 17342 bound_to 10162
  140.0051  144.6265  150.7695 LP  0  0  0  0  0  0  0  0  0  0  0  0  # atno 17343 bound_to 10162
  157.0744  130.5877  149.5408 LP  0  0  0  0  0  0  0  0  0  0  0  0  # atno 17370 bound_to 10713
  156.0021  130.5101  150.7699 LP  0  0  0  0  0  0  0  0  0  0  0  0  # atno 17371 bound_to 10713
  139.9455  135.0185  156.8838 LP  0  0  0  0  0  0  0  0  0  0  0  0  # atno 17394 bound_to 11000
  140.5820  134.0343  155.7467 LP  0  0  0  0  0  0  0  0  0  0  0  0  # atno 17395 bound_to 11000

$$$$
