AV-unprocessed.smi:1570|AV-procd|sdf|6323|dock6
  -GOLD-   22720 6533D 1   1.00000     0.00000
 Structure written by MMmdl.
 52 54  0  0  0  0  0  0  0  0  2 V2000
  153.6482  139.0138  160.3399 C   0  0  0  0  0  0  0  0  0  0  0  0
  154.1001  140.4678  160.1543 C   0  0  0  0  0  0  0  0  0  0  0  0
  153.0934  141.2459  159.4368 N   0  0  0  0  0  0  0  0  0  0  0  0
  152.5351  140.9381  158.2431 C   0  0  0  0  0  0  0  0  0  0  0  0
  152.7953  139.9518  157.5536 O   0  0  0  0  0  0  0  0  0  0  0  0
  151.6247  141.8952  157.9440 N   0  0  0  0  0  0  0  0  0  0  0  0
  150.7903  141.9528  156.7442 C   0  0  0  0  0  0  0  0  0  0  0  0
  149.4523  141.2107  156.9393 C   0  0  1  0  0  0  0  0  0  0  0  0
  148.4157  142.1723  156.9765 O   0  0  0  0  0  0  0  0  0  0  0  0
  149.1559  140.2486  155.7708 C   0  0  0  0  0  0  0  0  0  0  0  0
  150.2029  139.2061  155.6195 N   0  3  1  0  0  0  0  0  0  0  0  0
  149.6766  137.8346  155.8062 C   0  0  0  0  0  0  0  0  0  0  0  0
  150.8225  136.8075  155.7536 C   0  0  1  0  0  0  0  0  0  0  0  0
  150.3086  135.3668  155.8512 C   0  0  0  0  0  0  0  0  0  0  0  0
  151.5235  136.9396  154.5197 O   0  0  0  0  0  0  0  0  0  0  0  0
  152.0647  138.2371  154.2716 C   0  0  2  0  0  0  0  0  0  0  0  0
  153.2708  138.5503  155.1750 C   0  0  0  0  0  0  0  0  0  0  0  0
  150.9507  139.2995  154.3412 C   0  0  0  0  0  0  0  0  0  0  0  0
  151.5886  142.8349  158.9848 C   0  0  0  0  0  0  0  0  0  0  0  0
  150.8104  143.9923  159.1636 C   0  0  0  0  0  0  0  0  0  0  0  0
  151.0148  144.7323  160.3518 C   0  0  0  0  0  0  0  0  0  0  0  0
  151.9675  144.3122  161.3157 C   0  0  0  0  0  0  0  0  0  0  0  0
  152.7352  143.1418  161.1126 C   0  0  0  0  0  0  0  0  0  0  0  0
  152.5133  142.4260  159.9233 C   0  0  0  0  0  0  0  0  0  0  0  0
  154.4019  138.4398  160.8790 H   0  0  0  0  0  0  0  0  0  0  0  0
  153.4826  138.5258  159.3789 H   0  0  0  0  0  0  0  0  0  0  0  0
  152.7196  138.9584  160.9090 H   0  0  0  0  0  0  0  0  0  0  0  0
  154.2939  140.9266  161.1242 H   0  0  0  0  0  0  0  0  0  0  0  0
  155.0472  140.4951  159.6134 H   0  0  0  0  0  0  0  0  0  0  0  0
  150.6303  142.9817  156.4209 H   0  0  0  0  0  0  0  0  0  0  0  0
  151.3554  141.4812  155.9386 H   0  0  0  0  0  0  0  0  0  0  0  0
  149.4643  140.6642  157.8815 H   0  0  0  0  0  0  0  0  0  0  0  0
  148.6660  142.9083  156.4390 H   0  0  0  0  0  0  0  0  0  0  0  0
  148.1836  139.7821  155.9382 H   0  0  0  0  0  0  0  0  0  0  0  0
  149.0683  140.7981  154.8320 H   0  0  0  0  0  0  0  0  0  0  0  0
  149.1680  137.7626  156.7685 H   0  0  0  0  0  0  0  0  0  0  0  0
  148.9353  137.6201  155.0344 H   0  0  0  0  0  0  0  0  0  0  0  0
  151.5059  136.9783  156.5857 H   0  0  0  0  0  0  0  0  0  0  0  0
  149.7741  135.2027  156.7873 H   0  0  0  0  0  0  0  0  0  0  0  0
  151.1338  134.6552  155.8114 H   0  0  0  0  0  0  0  0  0  0  0  0
  149.6287  135.1331  155.0314 H   0  0  0  0  0  0  0  0  0  0  0  0
  152.4379  138.2164  153.2472 H   0  0  0  0  0  0  0  0  0  0  0  0
  153.7432  139.4869  154.8773 H   0  0  0  0  0  0  0  0  0  0  0  0
  154.0242  137.7656  155.1024 H   0  0  0  0  0  0  0  0  0  0  0  0
  152.9901  138.6504  156.2231 H   0  0  0  0  0  0  0  0  0  0  0  0
  150.2563  139.1524  153.5122 H   0  0  0  0  0  0  0  0  0  0  0  0
  151.3829  140.2912  154.2119 H   0  0  0  0  0  0  0  0  0  0  0  0
  150.0829  144.3078  158.4310 H   0  0  0  0  0  0  0  0  0  0  0  0
  150.4368  145.6274  160.5289 H   0  0  0  0  0  0  0  0  0  0  0  0
  152.1071  144.8917  162.2165 H   0  0  0  0  0  0  0  0  0  0  0  0
  153.4585  142.8144  161.8448 H   0  0  0  0  0  0  0  0  0  0  0  0
  150.8664  139.3596  156.3661 H   0  0  0  0  0  0  0  0  0  0  0  0
  1  2  1  0  0  0  0
  1 25  1  0  0  0  0
  1 26  1  0  0  0  0
  1 27  1  0  0  0  0
  2  3  1  0  0  0  0
  2 28  1  0  0  0  0
  2 29  1  0  0  0  0
  3 24  1  0  0  0  0
  3  4  1  0  0  0  0
  4  5  2  0  0  0  0
  4  6  1  0  0  0  0
  6  7  1  0  0  0  0
  6 19  1  0  0  0  0
  7  8  1  0  0  0  0
  7 30  1  0  0  0  0
  7 31  1  0  0  0  0
  8  9  1  0  0  0  0
  8 10  1  0  0  0  0
  8 32  1  0  0  0  0
  9 33  1  0  0  0  0
 10 11  1  0  0  0  0
 10 34  1  0  0  0  0
 10 35  1  0  0  0  0
 11 18  1  0  0  0  0
 11 12  1  0  0  0  0
 11 52  1  0  0  0  0
 12 13  1  0  0  0  0
 12 36  1  0  0  0  0
 12 37  1  0  0  0  0
 13 14  1  0  0  0  0
 13 15  1  0  0  0  0
 13 38  1  0  0  0  0
 14 39  1  0  0  0  0
 14 40  1  0  0  0  0
 14 41  1  0  0  0  0
 15 16  1  0  0  0  0
 16 17  1  0  0  0  0
 16 18  1  0  0  0  0
 16 42  1  0  0  0  0
 17 43  1  0  0  0  0
 17 44  1  0  0  0  0
 17 45  1  0  0  0  0
 18 46  1  0  0  0  0
 18 47  1  0  0  0  0
 19 24  2  0  0  0  0
 19 20  1  0  0  0  0
 20 21  2  0  0  0  0
 20 48  1  0  0  0  0
 21 22  1  0  0  0  0
 21 49  1  0  0  0  0
 22 23  2  0  0  0  0
 22 50  1  0  0  0  0
 23 24  1  0  0  0  0
 23 51  1  0  0  0  0
M  CHG  1  11   1
M  END
> <s_m_source_file>
AV-unprocessed.smi

> <i_m_source_file_index>
1570

> <i_lp_mmshare_version>
43012

> <i_f3d_flags>
0

> <s_epik_input>
W2NIXTFbY0hdW2NIXVtjSF1jKGMxMiluKFtDSDJdW0NIM10pYyg9TyluMltDSDJdW0NASF0oW09IXSlbQ0gyXU4zW0NIMl1bQ0BASF0oW0NIM10pT1tDQEBIXShbQ0gzXSlbQ0gyXTM=

> <s_epik_cmdline>
J2VwaWtfcHl0aG9uJywgJy1waCcsICc3LjAnLCAnLXRuJywgJzgnLCAnLW1hJywgJzIwMCcsICctbWV0YWxfYmluZGluZycsICctaW1hZScsICc8aW5maWxlLm1hZT4nLCAnLW9tYWUnLCAnPG91dGZpbGUubWFlPic=

> <r_epik_Ionization_Penalty>
0.706332

> <r_epik_Ionization_Penalty_Charging>
0.706318

> <r_epik_Ionization_Penalty_Neutral>
1.42224e-05

> <r_epik_State_Penalty>
0.729493

> <r_epik_Charging_Adjusted_Penalty>
1.43581

> <i_epik_Tot_Q>
1

> <i_epik_Tot_abs_Q>
1

> <r_epik_Metal_State_Penalty>
0.729493

> <b_epik_Metal_Only>
0

> <s_lp_Force_Field>
OPLS_2005

> <r_lp_Energy>
55.371

> <b_lp_Chiralities_Consistent>
1

> <s_lp_Variant>
AV-unprocessed.smi:1570-12

> <Gold.Version>
5.8.1

> <Gold.Id.Protein>
6NUR|6NUR_protein|mol2

> <Gold.PLP.Fitness>
53.3131

> <Gold.PLP.PLP>
-47.8998

> <Gold.PLP.part.hbond>
-3.0000

> <Gold.PLP.part.metal>
0.0000

> <Gold.PLP.part.buried>
-5.8577

> <Gold.PLP.part.nonpolar>
-39.2786

> <Gold.PLP.part.repulsive>
0.2050

> <Gold.PLP.ligand.clash>
0.0000

> <Gold.PLP.ligand.torsion>
1.8444

> <Gold.PLP.Chemscore.Hbond>
3.0000

> <Gold.PLP.Chemscore.CHOScore>
0.0000

> <Gold.PLP.Chemscore.Metal>
0.0000

> <Gold.Chemscore.Hbonds>
donor molecule, donor type, donor heavy atom, donor atom, acceptor molecule, acceptor atom, score
      L1  H     9    33       P1  8028  1.00
      P1  H  7997  8008       L1     5  1.00
      P1  H 10752 10765       L1    15  1.00

> <Gold.PLP.Chemscore.Internal.Correction>
0.1021

> <Gold.Rescore>
     Score         DG    S(hbond)    S(metal)    S(lipo)     H(rot)  DE(clash)    DE(int)     intcor
     21.67     -23.54       2.33        0.00     134.55       2.13       0.13       1.74       ----

> <Gold.Chemscore.Fitness>
21.6692

> <Gold.Chemscore.DG>
-23.5431

> <Gold.Chemscore.ZeroCoef>
-5.4800

> <Gold.Chemscore.Hbond>
2.3275

> <Gold.Chemscore.Metal>
0.0000

> <Gold.Chemscore.Lipo>
134.5527

> <Gold.Chemscore.Internal_Hbond>
0.0000

> <Gold.Chemscore.DEClash>
0.1294

> <Gold.Chemscore.DEInternal>
1.7445

> <Gold.Chemscore.Rot>
2.1303

> <Gold.Chemscore.Internal.Correction>
   9.000000E+99

> <Gold.Chemscore.Hbonds>
donor molecule, donor type, donor heavy atom, donor atom, acceptor molecule, acceptor atom, score
      L1  H     9    33       P1  8028  0.92
      P1  H  7997  8008       L1     5  0.83
      P1  H 10752 10765       L1    15  0.52

> <Gold.Chemscore.Hbond.Weighted>
-7.7740

> <Gold.Chemscore.Metal.Weighted>
-0.0000

> <Gold.Chemscore.Lipo.Weighted>
-15.7427

> <Gold.Chemscore.Internal_Hbond.Weighted>
0.0000

> <Gold.Chemscore.DEClash.Weighted>
0.1294

> <Gold.Chemscore.DEInternal.Weighted>
1.7445

> <Gold.Chemscore.Rot.Weighted>
5.4535

> <Gold.Chemscore.Internal.Correction.Weighted>
   9.000000E+99

> <Gold.Protein.RotatedTorsions>
[ 6907 6896 6895 6894 ] final   65.23 input  -60.11 | X-H torsion
[ 7974 7965 7964 7962 ] final  -31.17 input  175.53 | X-H torsion
[ 8008 7997 7996 7995 ] final  -58.32 input   59.86 | X-H torsion
[ 10167 10162 10161 10158 ] final  -88.97 input  -65.29 | X-H torsion
[ 10718 10713 10712 10709 ] final   13.74 input   66.30 | X-H torsion
[ 10763 10752 10751 10750 ] final  169.97 input  -60.55 | X-H torsion
[ 11005 11000 10999 10996 ] final -157.74 input  -57.11 | X-H torsion

> <Gold.Protein.ActiveResidues>
 VAL166  LYS551  ARG553  GLY616  TRP617  ASP618  TYR619  PRO620  LYS621  CYS622 
 ASP623  PHE694  ASN695  SER759  ASP760  ASP761  ALA762  ILE779  LEU786  VAL792 
 PHE793  MET794  SER795  GLU796  ALA797  LYS798  CYS799  TRP800  GLU811  SER814 

> <Gold.Protein.RotatedAtoms>
  152.4392  134.5625  159.9897 H   0  0  0  0  0  0  0  0  0  0  0  0  # atno 6907 bound_to 6896
  151.5727  133.3382  159.3000 H   0  0  0  0  0  0  0  0  0  0  0  0  # atno 6908 bound_to 6896
  150.8295  134.7576  159.6906 H   0  0  0  0  0  0  0  0  0  0  0  0  # atno 6909 bound_to 6896
  146.1087  140.5633  142.8787 H   0  0  0  0  0  0  0  0  0  0  0  0  # atno 7974 bound_to 7965
  154.4304  140.1087  156.5938 H   0  0  0  0  0  0  0  0  0  0  0  0  # atno 8008 bound_to 7997
  155.5984  140.3493  155.4568 H   0  0  0  0  0  0  0  0  0  0  0  0  # atno 8009 bound_to 7997
  156.0193  140.1236  157.0364 H   0  0  0  0  0  0  0  0  0  0  0  0  # atno 8010 bound_to 7997
  140.3694  143.2802  151.9518 H   0  0  0  0  0  0  0  0  0  0  0  0  # atno 10167 bound_to 10162
  157.0290  130.6185  149.5732 H   0  0  0  0  0  0  0  0  0  0  0  0  # atno 10718 bound_to 10713
  154.3908  135.2754  155.2156 H   0  0  0  0  0  0  0  0  0  0  0  0  # atno 10763 bound_to 10752
  154.4222  135.5997  153.6021 H   0  0  0  0  0  0  0  0  0  0  0  0  # atno 10764 bound_to 10752
  152.9832  135.5975  154.4163 H   0  0  0  0  0  0  0  0  0  0  0  0  # atno 10765 bound_to 10752
  140.6613  134.4346  157.5234 H   0  0  0  0  0  0  0  0  0  0  0  0  # atno 11005 bound_to 11000
  144.7493  140.5150  143.6813 LP  0  0  0  0  0  0  0  0  0  0  0  0  # atno 17320 bound_to 7965
  145.5707  139.1483  143.3290 LP  0  0  0  0  0  0  0  0  0  0  0  0  # atno 17321 bound_to 7965
  139.4805  144.5920  151.7754 LP  0  0  0  0  0  0  0  0  0  0  0  0  # atno 17342 bound_to 10162
  140.5048  144.1114  150.5980 LP  0  0  0  0  0  0  0  0  0  0  0  0  # atno 17343 bound_to 10162
  156.0076  130.5164  150.7882 LP  0  0  0  0  0  0  0  0  0  0  0  0  # atno 17370 bound_to 10713
  157.5192  131.0930  151.0100 LP  0  0  0  0  0  0  0  0  0  0  0  0  # atno 17371 bound_to 10713
  139.9012  134.8552  156.1889 LP  0  0  0  0  0  0  0  0  0  0  0  0  # atno 17394 bound_to 11000
  141.0463  133.6912  156.1689 LP  0  0  0  0  0  0  0  0  0  0  0  0  # atno 17395 bound_to 11000

$$$$
