AV-unprocessed.smi:3194|AV-procd|sdf|12210|dock10
  -GOLD-   2272018 43D 1   1.00000     0.00000
 Structure written by MMmdl.
 28 28  0  0  0  0  0  0  0  0  1 V2000
  147.4502  141.9913  154.8564 C   0  0  0  0  0  0  0  0  0  0  0  0
  148.7649  141.2058  154.7068 C   0  0  2  0  0  0  0  0  0  0  0  0
  148.5819  139.8006  154.1034 C   0  0  0  0  0  0  0  0  0  0  0  0
  147.8350  139.8401  152.9041 O   0  0  0  0  0  0  0  0  0  0  0  0
  149.4768  141.1107  155.9781 N   0  0  0  0  0  0  0  0  0  0  0  0
  150.6966  140.5769  156.1595 C   0  0  0  0  0  0  0  0  0  0  0  0
  151.3654  140.1015  155.2407 O   0  0  0  0  0  0  0  0  0  0  0  0
  151.2412  140.5688  157.5959 C   0  0  0  0  0  0  0  0  0  0  0  0
  150.3463  139.9774  158.3910 F   0  0  0  0  0  0  0  0  0  0  0  0
  152.3637  139.8462  157.6383 F   0  0  0  0  0  0  0  0  0  0  0  0
  151.5122  141.9950  158.0678 C   0  0  0  0  0  0  0  0  0  0  0  0
  152.1273  142.2442  159.3159 C   0  0  0  0  0  0  0  0  0  0  0  0
  152.3420  143.5791  159.7092 C   0  0  0  0  0  0  0  0  0  0  0  0
  151.9349  144.6145  158.8470 C   0  0  0  0  0  0  0  0  0  0  0  0
  151.3266  144.2673  157.6249 C   0  0  0  0  0  0  0  0  0  0  0  0
  151.1155  142.9910  157.2390 N   0  0  0  0  0  0  0  0  0  0  0  0
  149.3998  141.7566  154.0105 H   0  0  0  0  0  0  0  0  0  0  0  0
  146.9207  142.0503  153.9052 H   0  0  0  0  0  0  0  0  0  0  0  0
  147.6377  143.0119  155.1909 H   0  0  0  0  0  0  0  0  0  0  0  0
  146.7823  141.5252  155.5817 H   0  0  0  0  0  0  0  0  0  0  0  0
  149.5560  139.3649  153.8790 H   0  0  0  0  0  0  0  0  0  0  0  0
  148.0934  139.1324  154.8137 H   0  0  0  0  0  0  0  0  0  0  0  0
  148.4365  139.8850  152.1765 H   0  0  0  0  0  0  0  0  0  0  0  0
  148.9981  141.4741  156.7901 H   0  0  0  0  0  0  0  0  0  0  0  0
  152.4251  141.4330  159.9637 H   0  0  0  0  0  0  0  0  0  0  0  0
  152.8091  143.8046  160.6565 H   0  0  0  0  0  0  0  0  0  0  0  0
  152.0836  145.6498  159.1161 H   0  0  0  0  0  0  0  0  0  0  0  0
  150.9998  145.0352  156.9394 H   0  0  0  0  0  0  0  0  0  0  0  0
  1  2  1  0  0  0  0
  1 18  1  0  0  0  0
  1 19  1  0  0  0  0
  1 20  1  0  0  0  0
  2 17  1  0  0  0  0
  2  3  1  0  0  0  0
  2  5  1  0  0  0  0
  3  4  1  0  0  0  0
  3 21  1  0  0  0  0
  3 22  1  0  0  0  0
  4 23  1  0  0  0  0
  5  6  1  0  0  0  0
  5 24  1  0  0  0  0
  6  7  2  0  0  0  0
  6  8  1  0  0  0  0
  8  9  1  0  0  0  0
  8 10  1  0  0  0  0
  8 11  1  0  0  0  0
 11 16  1  0  0  0  0
 11 12  2  0  0  0  0
 12 13  1  0  0  0  0
 12 25  1  0  0  0  0
 13 14  2  0  0  0  0
 13 26  1  0  0  0  0
 14 15  1  0  0  0  0
 14 27  1  0  0  0  0
 15 16  2  0  0  0  0
 15 28  1  0  0  0  0
M  END
> <s_m_source_file>
AV-unprocessed.smi

> <i_m_source_file_index>
3194

> <i_lp_mmshare_version>
43012

> <i_f3d_flags>
0

> <s_epik_input>
W09IXVtDSDJdW0NASF0oW0NIM10pW05IXUMoPU8pQyhGKShGKWMxW2NIXVtjSF1bY0hdW2NIXW4x

> <s_epik_cmdline>
J2VwaWtfcHl0aG9uJywgJy1waCcsICc3LjAnLCAnLXRuJywgJzgnLCAnLW1hJywgJzIwMCcsICctbWV0YWxfYmluZGluZycsICctaW1hZScsICc8aW5maWxlLm1hZT4nLCAnLW9tYWUnLCAnPG91dGZpbGUubWFlPic=

> <r_lp_tautomer_probability>
1

> <r_epik_Ionization_Penalty>
3.67967e-05

> <r_epik_Ionization_Penalty_Charging>
0

> <r_epik_Ionization_Penalty_Neutral>
3.67967e-05

> <r_epik_State_Penalty>
-0

> <r_epik_Charging_Adjusted_Penalty>
0

> <i_epik_Tot_Q>
0

> <i_epik_Tot_abs_Q>
0

> <r_epik_Metal_State_Penalty>
0.0311521

> <b_epik_Metal_Only>
0

> <s_lp_Force_Field>
OPLS_2005

> <r_lp_Energy>
12.3204

> <b_lp_Chiralities_Consistent>
1

> <s_lp_Variant>
AV-unprocessed.smi:3194-2

> <Gold.Version>
5.8.1

> <Gold.Id.Protein>
6NUR|6NUR_protein|mol2

> <Gold.PLP.Fitness>
41.5208

> <Gold.PLP.PLP>
-33.6700

> <Gold.PLP.part.hbond>
-1.8230

> <Gold.PLP.part.metal>
0.0000

> <Gold.PLP.part.buried>
-1.4980

> <Gold.PLP.part.nonpolar>
-30.4629

> <Gold.PLP.part.repulsive>
0.2248

> <Gold.PLP.ligand.clash>
0.0000

> <Gold.PLP.ligand.torsion>
0.2991

> <Gold.PLP.Chemscore.Hbond>
2.0000

> <Gold.PLP.Chemscore.CHOScore>
0.8011

> <Gold.PLP.Chemscore.Metal>
0.0000

> <Gold.Chemscore.Hbonds>
donor molecule, donor type, donor heavy atom, donor atom, acceptor molecule, acceptor atom, score
      L1  H     4    23       P1  7957  1.00
      P1  H  7989  7998       L1     7  1.00
      L1  C    15    28       P1  8028  0.82

> <Gold.PLP.Chemscore.Internal.Correction>
0.0456

> <Gold.Rescore>
     Score         DG    S(hbond)    S(metal)    S(lipo)     H(rot)  DE(clash)    DE(int)     intcor
     13.41     -15.09       1.98        0.00      80.22       2.50       0.17       1.51       ----

> <Gold.Chemscore.Fitness>
13.4124

> <Gold.Chemscore.DG>
-15.0906

> <Gold.Chemscore.ZeroCoef>
-5.4800

> <Gold.Chemscore.Hbond>
1.9810

> <Gold.Chemscore.Metal>
0.0000

> <Gold.Chemscore.Lipo>
80.2249

> <Gold.Chemscore.Internal_Hbond>
0.0000

> <Gold.Chemscore.DEClash>
0.1654

> <Gold.Chemscore.DEInternal>
1.5127

> <Gold.Chemscore.Rot>
2.4970

> <Gold.Chemscore.Internal.Correction>
   9.000000E+99

> <Gold.Chemscore.Hbonds>
donor molecule, donor type, donor heavy atom, donor atom, acceptor molecule, acceptor atom, score
      L1  H     4    23       P1  7957  0.94
      P1  H  7989  7998       L1     7  0.97

> <Gold.Chemscore.Hbond.Weighted>
-6.6165

> <Gold.Chemscore.Metal.Weighted>
-0.0000

> <Gold.Chemscore.Lipo.Weighted>
-9.3863

> <Gold.Chemscore.Internal_Hbond.Weighted>
0.0000

> <Gold.Chemscore.DEClash.Weighted>
0.1654

> <Gold.Chemscore.DEInternal.Weighted>
1.5127

> <Gold.Chemscore.Rot.Weighted>
6.3922

> <Gold.Chemscore.Internal.Correction.Weighted>
   9.000000E+99

> <Gold.Protein.RotatedTorsions>
[ 6907 6896 6895 6894 ] final  -52.36 input  -60.11 | X-H torsion
[ 7974 7965 7964 7962 ] final   83.99 input  175.53 | X-H torsion
[ 8008 7997 7996 7995 ] final -128.83 input   59.86 | X-H torsion
[ 10167 10162 10161 10158 ] final   86.97 input  -65.29 | X-H torsion
[ 10718 10713 10712 10709 ] final  103.57 input   66.30 | X-H torsion
[ 10763 10752 10751 10750 ] final -119.72 input  -60.55 | X-H torsion
[ 11005 11000 10999 10996 ] final -123.58 input  -57.11 | X-H torsion

> <Gold.Protein.ActiveResidues>
 VAL166  LYS551  ARG553  GLY616  TRP617  ASP618  TYR619  PRO620  LYS621  CYS622 
 ASP623  PHE694  ASN695  SER759  ASP760  ASP761  ALA762  ILE779  LEU786  VAL792 
 PHE793  MET794  SER795  GLU796  ALA797  LYS798  CYS799  TRP800  GLU811  SER814 

> <Gold.Protein.RotatedAtoms>
  150.8525  134.7854  159.7019 H   0  0  0  0  0  0  0  0  0  0  0  0  # atno 6907 bound_to 6896
  152.4586  134.5233  159.9799 H   0  0  0  0  0  0  0  0  0  0  0  0  # atno 6908 bound_to 6896
  151.5351  133.3404  159.2961 H   0  0  0  0  0  0  0  0  0  0  0  0  # atno 6909 bound_to 6896
  145.6047  139.2358  143.2226 H   0  0  0  0  0  0  0  0  0  0  0  0  # atno 7974 bound_to 7965
  155.2691  140.0439  157.3005 H   0  0  0  0  0  0  0  0  0  0  0  0  # atno 8008 bound_to 7997
  154.5664  140.2361  155.8226 H   0  0  0  0  0  0  0  0  0  0  0  0  # atno 8009 bound_to 7997
  156.2088  140.3005  155.9694 H   0  0  0  0  0  0  0  0  0  0  0  0  # atno 8010 bound_to 7997
  139.8821  144.6434  150.8831 H   0  0  0  0  0  0  0  0  0  0  0  0  # atno 10167 bound_to 10162
  157.6768  131.0782  150.5575 H   0  0  0  0  0  0  0  0  0  0  0  0  # atno 10718 bound_to 10713
  154.8625  135.4228  154.2344 H   0  0  0  0  0  0  0  0  0  0  0  0  # atno 10763 bound_to 10752
  153.3322  135.6989  153.6944 H   0  0  0  0  0  0  0  0  0  0  0  0  # atno 10764 bound_to 10752
  153.5956  135.3546  155.2900 H   0  0  0  0  0  0  0  0  0  0  0  0  # atno 10765 bound_to 10752
  140.9908  134.0542  157.3657 H   0  0  0  0  0  0  0  0  0  0  0  0  # atno 11005 bound_to 11000
  146.1550  140.6871  142.9304 LP  0  0  0  0  0  0  0  0  0  0  0  0  # atno 17320 bound_to 7965
  144.7295  140.4628  143.6948 LP  0  0  0  0  0  0  0  0  0  0  0  0  # atno 17321 bound_to 7965
  140.7742  143.3577  151.1889 LP  0  0  0  0  0  0  0  0  0  0  0  0  # atno 17342 bound_to 10162
  139.7186  143.9260  152.2976 LP  0  0  0  0  0  0  0  0  0  0  0  0  # atno 17343 bound_to 10162
  156.5879  130.4321  149.5949 LP  0  0  0  0  0  0  0  0  0  0  0  0  # atno 17370 bound_to 10713
  156.2608  130.6961  151.1729 LP  0  0  0  0  0  0  0  0  0  0  0  0  # atno 17371 bound_to 10713
  139.8991  135.0157  156.7181 LP  0  0  0  0  0  0  0  0  0  0  0  0  # atno 17394 bound_to 11000
  140.7043  133.9279  155.8044 LP  0  0  0  0  0  0  0  0  0  0  0  0  # atno 17395 bound_to 11000

$$$$
