AV-unprocessed.smi:3146|AV-procd|sdf|11986|dock7
  -GOLD-   2272017393D 1   1.00000     0.00000
 Structure written by MMmdl.
 34 35  0  0  0  0  0  0  0  0  1 V2000
  150.8086  144.7888  159.1722 O   0  0  0  0  0  0  0  0  0  0  0  0
  151.4879  143.8064  158.8677 C   0  0  0  0  0  0  0  0  0  0  0  0
  151.5170  143.3138  157.4113 C   0  0  0  0  0  0  0  0  0  0  0  0
  150.2729  142.6504  156.9999 N   0  0  0  0  0  0  0  0  0  0  0  0
  150.3543  141.2163  157.2306 C   0  0  0  0  0  0  0  0  0  0  0  0
  151.6208  140.6611  156.5629 C   0  0  0  0  0  0  0  0  0  0  0  0
  151.3161  139.5569  155.6736 N   0  0  0  0  0  0  0  0  0  0  0  0
  151.7827  138.2601  155.7259 C   0  0  0  0  0  0  0  0  0  0  0  0
  151.2228  137.5846  154.6796 C   0  0  0  0  0  0  0  0  0  0  0  0
  150.4173  138.5659  154.0361 C   0  0  0  0  0  0  0  0  0  0  0  0
  150.4759  139.7454  154.6329 N   0  0  0  0  0  0  0  0  0  0  0  0
  152.2179  143.1320  159.7806 N   0  0  0  0  0  0  0  0  0  0  0  0
  152.2657  143.4856  161.1981 C   0  0  0  0  0  0  0  0  0  0  0  0
  152.9683  142.3187  161.8922 C   0  0  0  0  0  0  0  0  0  0  0  0
  153.8324  141.7027  160.8008 C   0  0  0  0  0  0  0  0  0  0  0  0
  153.0503  141.9595  159.5121 C   0  0  0  0  0  0  0  0  0  0  0  0
  151.6989  144.1692  156.7591 H   0  0  0  0  0  0  0  0  0  0  0  0
  152.3510  142.6212  157.2891 H   0  0  0  0  0  0  0  0  0  0  0  0
  149.4757  143.0254  157.4941 H   0  0  0  0  0  0  0  0  0  0  0  0
  150.3749  141.0145  158.3027 H   0  0  0  0  0  0  0  0  0  0  0  0
  149.4707  140.7250  156.8203 H   0  0  0  0  0  0  0  0  0  0  0  0
  152.1214  141.4403  155.9862 H   0  0  0  0  0  0  0  0  0  0  0  0
  152.3329  140.3166  157.3146 H   0  0  0  0  0  0  0  0  0  0  0  0
  152.4670  137.9300  156.4940 H   0  0  0  0  0  0  0  0  0  0  0  0
  151.3660  136.5478  154.4140 H   0  0  0  0  0  0  0  0  0  0  0  0
  149.7966  138.4567  153.1587 H   0  0  0  0  0  0  0  0  0  0  0  0
  152.8421  144.4045  161.3148 H   0  0  0  0  0  0  0  0  0  0  0  0
  151.2714  143.6533  161.6154 H   0  0  0  0  0  0  0  0  0  0  0  0
  153.5446  142.6298  162.7640 H   0  0  0  0  0  0  0  0  0  0  0  0
  152.2266  141.5908  162.2241 H   0  0  0  0  0  0  0  0  0  0  0  0
  154.7896  142.2239  160.7571 H   0  0  0  0  0  0  0  0  0  0  0  0
  154.0357  140.6447  160.9683 H   0  0  0  0  0  0  0  0  0  0  0  0
  152.4060  141.1095  159.2823 H   0  0  0  0  0  0  0  0  0  0  0  0
  153.7268  142.1131  158.6705 H   0  0  0  0  0  0  0  0  0  0  0  0
  1  2  2  0  0  0  0
  2  3  1  0  0  0  0
  2 12  1  0  0  0  0
  3  4  1  0  0  0  0
  3 17  1  0  0  0  0
  3 18  1  0  0  0  0
  4  5  1  0  0  0  0
  4 19  1  0  0  0  0
  5  6  1  0  0  0  0
  5 20  1  0  0  0  0
  5 21  1  0  0  0  0
  6  7  1  0  0  0  0
  6 22  1  0  0  0  0
  6 23  1  0  0  0  0
  7 11  1  0  0  0  0
  7  8  1  0  0  0  0
  8  9  2  0  0  0  0
  8 24  1  0  0  0  0
  9 10  1  0  0  0  0
  9 25  1  0  0  0  0
 10 11  2  0  0  0  0
 10 26  1  0  0  0  0
 12 16  1  0  0  0  0
 12 13  1  0  0  0  0
 13 14  1  0  0  0  0
 13 27  1  0  0  0  0
 13 28  1  0  0  0  0
 14 15  1  0  0  0  0
 14 29  1  0  0  0  0
 14 30  1  0  0  0  0
 15 16  1  0  0  0  0
 15 31  1  0  0  0  0
 15 32  1  0  0  0  0
 16 33  1  0  0  0  0
 16 34  1  0  0  0  0
M  END
> <s_m_source_file>
AV-unprocessed.smi

> <i_m_source_file_index>
3146

> <i_lp_mmshare_version>
43012

> <i_f3d_flags>
0

> <s_epik_input>
W0NIMl0xW0NIMl1bQ0gyXVtDSDJdTjFDKD1PKVtDSDJdW05IXVtDSDJdW0NIMl1uMltjSF1bY0hdW2NIXW4y

> <s_epik_cmdline>
J2VwaWtfcHl0aG9uJywgJy1waCcsICc3LjAnLCAnLXRuJywgJzgnLCAnLW1hJywgJzIwMCcsICctbWV0YWxfYmluZGluZycsICctaW1hZScsICc8aW5maWxlLm1hZT4nLCAnLW9tYWUnLCAnPG91dGZpbGUubWFlPic=

> <r_lp_tautomer_probability>
1

> <r_epik_Ionization_Penalty>
0.734549

> <r_epik_Ionization_Penalty_Charging>
0

> <r_epik_Ionization_Penalty_Neutral>
0.734549

> <r_epik_State_Penalty>
0.75825

> <r_epik_Charging_Adjusted_Penalty>
0.75825

> <i_epik_Tot_Q>
0

> <i_epik_Tot_abs_Q>
0

> <r_epik_Metal_State_Penalty>
0.757003

> <b_epik_Metal_Only>
0

> <s_lp_Force_Field>
OPLS_2005

> <r_lp_Energy>
29.6194

> <b_lp_Chiralities_Consistent>
1

> <s_lp_Variant>
AV-unprocessed.smi:3146-2

> <Gold.Version>
5.8.1

> <Gold.Id.Protein>
6NUR|6NUR_protein|mol2

> <Gold.PLP.Fitness>
47.7900

> <Gold.PLP.PLP>
-41.4774

> <Gold.PLP.part.hbond>
-2.0000

> <Gold.PLP.part.metal>
0.0000

> <Gold.PLP.part.buried>
-6.4781

> <Gold.PLP.part.nonpolar>
-34.5709

> <Gold.PLP.part.repulsive>
0.2389

> <Gold.PLP.ligand.clash>
0.0000

> <Gold.PLP.ligand.torsion>
0.7314

> <Gold.PLP.Chemscore.Hbond>
1.0000

> <Gold.PLP.Chemscore.CHOScore>
1.5891

> <Gold.PLP.Chemscore.Metal>
0.0000

> <Gold.Chemscore.Hbonds>
donor molecule, donor type, donor heavy atom, donor atom, acceptor molecule, acceptor atom, score
      P1  H  7989  7998       L1    11  0.95
      L1  C    10    26       P1  7948  0.66
      L1  C    10    26       P1  7957  0.94

> <Gold.PLP.Chemscore.Internal.Correction>
0.0082

> <Gold.Rescore>
     Score         DG    S(hbond)    S(metal)    S(lipo)     H(rot)  DE(clash)    DE(int)     intcor
     14.04     -14.91       1.09        0.00      89.29       1.82       0.16       0.72       ----

> <Gold.Chemscore.Fitness>
14.0353

> <Gold.Chemscore.DG>
-14.9082

> <Gold.Chemscore.ZeroCoef>
-5.4800

> <Gold.Chemscore.Hbond>
1.0933

> <Gold.Chemscore.Metal>
0.0000

> <Gold.Chemscore.Lipo>
89.2943

> <Gold.Chemscore.Internal_Hbond>
0.0000

> <Gold.Chemscore.DEClash>
0.1559

> <Gold.Chemscore.DEInternal>
0.7169

> <Gold.Chemscore.Rot>
1.8246

> <Gold.Chemscore.Internal.Correction>
   9.000000E+99

> <Gold.Chemscore.Hbonds>
donor molecule, donor type, donor heavy atom, donor atom, acceptor molecule, acceptor atom, score
      P1  H  7989  7998       L1    11  0.12

> <Gold.Chemscore.Hbond.Weighted>
-3.6518

> <Gold.Chemscore.Metal.Weighted>
-0.0000

> <Gold.Chemscore.Lipo.Weighted>
-10.4474

> <Gold.Chemscore.Internal_Hbond.Weighted>
0.0000

> <Gold.Chemscore.DEClash.Weighted>
0.1559

> <Gold.Chemscore.DEInternal.Weighted>
0.7169

> <Gold.Chemscore.Rot.Weighted>
4.6710

> <Gold.Chemscore.Internal.Correction.Weighted>
   9.000000E+99

> <Gold.Protein.RotatedTorsions>
[ 6907 6896 6895 6894 ] final  -24.16 input  -60.11 | X-H torsion
[ 7974 7965 7964 7962 ] final  103.07 input  175.53 | X-H torsion
[ 8008 7997 7996 7995 ] final   -1.39 input   59.86 | X-H torsion
[ 10167 10162 10161 10158 ] final   98.42 input  -65.29 | X-H torsion
[ 10718 10713 10712 10709 ] final   36.02 input   66.30 | X-H torsion
[ 10763 10752 10751 10750 ] final  120.90 input  -60.55 | X-H torsion
[ 11005 11000 10999 10996 ] final   53.74 input  -57.11 | X-H torsion

> <Gold.Protein.ActiveResidues>
 VAL166  LYS551  ARG553  GLY616  TRP617  ASP618  TYR619  PRO620  LYS621  CYS622 
 ASP623  PHE694  ASN695  SER759  ASP760  ASP761  ALA762  ILE779  LEU786  VAL792 
 PHE793  MET794  SER795  GLU796  ALA797  LYS798  CYS799  TRP800  GLU811  SER814 

> <Gold.Protein.RotatedAtoms>
  151.1935  135.0412  159.8842 H   0  0  0  0  0  0  0  0  0  0  0  0  # atno 6907 bound_to 6896
  152.5438  134.0930  159.8295 H   0  0  0  0  0  0  0  0  0  0  0  0  # atno 6908 bound_to 6896
  151.1061  133.5160  159.2640 H   0  0  0  0  0  0  0  0  0  0  0  0  # atno 6909 bound_to 6896
  145.3508  139.2440  143.3559 H   0  0  0  0  0  0  0  0  0  0  0  0  # atno 7974 bound_to 7965
  154.6473  140.2560  155.7254 H   0  0  0  0  0  0  0  0  0  0  0  0  # atno 8008 bound_to 7997
  156.2558  140.2875  156.0812 H   0  0  0  0  0  0  0  0  0  0  0  0  # atno 8009 bound_to 7997
  155.1505  140.0382  157.2810 H   0  0  0  0  0  0  0  0  0  0  0  0  # atno 8010 bound_to 7997
  139.7711  144.6922  151.0155 H   0  0  0  0  0  0  0  0  0  0  0  0  # atno 10167 bound_to 10162
  157.3298  130.7491  149.6839 H   0  0  0  0  0  0  0  0  0  0  0  0  # atno 10718 bound_to 10713
  153.6056  135.3440  155.2961 H   0  0  0  0  0  0  0  0  0  0  0  0  # atno 10763 bound_to 10752
  154.8628  135.4238  154.2365 H   0  0  0  0  0  0  0  0  0  0  0  0  # atno 10764 bound_to 10752
  153.3204  135.7038  153.7108 H   0  0  0  0  0  0  0  0  0  0  0  0  # atno 10765 bound_to 10752
  140.0742  134.5427  155.9014 H   0  0  0  0  0  0  0  0  0  0  0  0  # atno 11005 bound_to 11000
  146.2969  140.4123  142.8718 LP  0  0  0  0  0  0  0  0  0  0  0  0  # atno 17320 bound_to 7965
  144.8719  140.7284  143.6041 LP  0  0  0  0  0  0  0  0  0  0  0  0  # atno 17321 bound_to 7965
  140.7814  143.4588  151.0308 LP  0  0  0  0  0  0  0  0  0  0  0  0  # atno 17342 bound_to 10162
  139.8271  143.7741  152.3179 LP  0  0  0  0  0  0  0  0  0  0  0  0  # atno 17343 bound_to 10162
  155.9694  130.4198  150.4395 LP  0  0  0  0  0  0  0  0  0  0  0  0  # atno 17370 bound_to 10713
  157.2425  131.0528  151.2428 LP  0  0  0  0  0  0  0  0  0  0  0  0  # atno 17371 bound_to 10713
  141.2023  133.6624  156.6000 LP  0  0  0  0  0  0  0  0  0  0  0  0  # atno 17394 bound_to 11000
  140.3582  134.7710  157.4515 LP  0  0  0  0  0  0  0  0  0  0  0  0  # atno 17395 bound_to 11000

$$$$
