AV-unprocessed.smi:1840|AV-procd|sdf|7492|dock10
  -GOLD-   22720 9193D 1   1.00000     0.00000
 Structure written by MMmdl.
 43 44  0  0  0  0  0  0  0  0  1 V2000
  147.1306  140.0654  153.2045 C   0  0  0  0  0  0  0  0  0  0  0  0
  147.7508  138.8819  153.9588 C   0  0  2  0  0  0  0  0  0  0  0  0
  149.2828  139.0317  154.0850 C   0  0  0  0  0  0  0  0  0  0  0  0
  149.6674  140.1003  154.9924 N   0  0  0  0  0  0  0  0  0  0  0  0
  148.8542  140.9037  155.7637 C   0  0  0  0  0  0  0  0  0  0  0  0
  149.6666  141.7386  156.4763 C   0  0  0  0  0  0  0  0  0  0  0  0
  150.9776  141.3674  156.0659 C   0  0  0  0  0  0  0  0  0  0  0  0
  150.9750  140.3905  155.1737 N   0  0  0  0  0  0  0  0  0  0  0  0
  147.4120  137.6395  153.2659 N   0  0  0  0  0  0  0  0  0  0  0  0
  146.3252  136.8913  153.5057 C   0  0  0  0  0  0  0  0  0  0  0  0
  145.4093  137.2202  154.2599 O   0  0  0  0  0  0  0  0  0  0  0  0
  146.3842  135.7164  152.8654 N   0  0  0  0  0  0  0  0  0  0  0  0
  145.4263  134.6208  153.0175 C   0  0  2  0  0  0  0  0  0  0  0  0
  146.1023  133.2531  152.7660 C   0  0  0  0  0  0  0  0  0  0  0  0
  146.4974  133.0658  151.2916 C   0  0  0  0  0  0  0  0  0  0  0  0
  145.2853  133.2548  150.3671 C   0  0  0  0  0  0  0  0  0  0  0  0
  144.6087  134.6160  150.5986 C   0  0  0  0  0  0  0  0  0  0  0  0
  144.2102  134.8113  152.0772 C   0  0  2  0  0  0  0  0  0  0  0  0
  143.4898  136.1527  152.2970 C   0  0  0  0  0  0  0  0  0  0  0  0
  147.3422  141.0066  153.7122 H   0  0  0  0  0  0  0  0  0  0  0  0
  146.0467  139.9646  153.1388 H   0  0  0  0  0  0  0  0  0  0  0  0
  147.5216  140.1398  152.1892 H   0  0  0  0  0  0  0  0  0  0  0  0
  147.3198  138.8776  154.9617 H   0  0  0  0  0  0  0  0  0  0  0  0
  149.7324  138.0963  154.4235 H   0  0  0  0  0  0  0  0  0  0  0  0
  149.7185  139.2493  153.1093 H   0  0  0  0  0  0  0  0  0  0  0  0
  147.7785  140.8079  155.7486 H   0  0  0  0  0  0  0  0  0  0  0  0
  149.3698  142.4963  157.1863 H   0  0  0  0  0  0  0  0  0  0  0  0
  151.9244  141.7753  156.3881 H   0  0  0  0  0  0  0  0  0  0  0  0
  148.1032  137.2764  152.6261 H   0  0  0  0  0  0  0  0  0  0  0  0
  147.1815  135.5395  152.2720 H   0  0  0  0  0  0  0  0  0  0  0  0
  145.0617  134.6379  154.0463 H   0  0  0  0  0  0  0  0  0  0  0  0
  146.9794  133.1309  153.4028 H   0  0  0  0  0  0  0  0  0  0  0  0
  145.4136  132.4575  153.0532 H   0  0  0  0  0  0  0  0  0  0  0  0
  147.2795  133.7778  151.0250 H   0  0  0  0  0  0  0  0  0  0  0  0
  146.9244  132.0731  151.1460 H   0  0  0  0  0  0  0  0  0  0  0  0
  145.5954  133.1659  149.3254 H   0  0  0  0  0  0  0  0  0  0  0  0
  144.5645  132.4553  150.5438 H   0  0  0  0  0  0  0  0  0  0  0  0
  145.2823  135.4145  150.2851 H   0  0  0  0  0  0  0  0  0  0  0  0
  143.7261  134.6939  149.9630 H   0  0  0  0  0  0  0  0  0  0  0  0
  143.4916  134.0274  152.3224 H   0  0  0  0  0  0  0  0  0  0  0  0
  144.1186  137.0001  152.0229 H   0  0  0  0  0  0  0  0  0  0  0  0
  143.2008  136.2755  153.3412 H   0  0  0  0  0  0  0  0  0  0  0  0
  142.5814  136.2106  151.6965 H   0  0  0  0  0  0  0  0  0  0  0  0
  1  2  1  0  0  0  0
  1 20  1  0  0  0  0
  1 21  1  0  0  0  0
  1 22  1  0  0  0  0
  2  3  1  0  0  0  0
  2  9  1  0  0  0  0
  2 23  1  0  0  0  0
  3  4  1  0  0  0  0
  3 24  1  0  0  0  0
  3 25  1  0  0  0  0
  4  8  1  0  0  0  0
  4  5  1  0  0  0  0
  5  6  2  0  0  0  0
  5 26  1  0  0  0  0
  6  7  1  0  0  0  0
  6 27  1  0  0  0  0
  7  8  2  0  0  0  0
  7 28  1  0  0  0  0
  9 10  1  0  0  0  0
  9 29  1  0  0  0  0
 10 11  2  0  0  0  0
 10 12  1  0  0  0  0
 12 13  1  0  0  0  0
 12 30  1  0  0  0  0
 13 18  1  0  0  0  0
 13 14  1  0  0  0  0
 13 31  1  0  0  0  0
 14 15  1  0  0  0  0
 14 32  1  0  0  0  0
 14 33  1  0  0  0  0
 15 16  1  0  0  0  0
 15 34  1  0  0  0  0
 15 35  1  0  0  0  0
 16 17  1  0  0  0  0
 16 36  1  0  0  0  0
 16 37  1  0  0  0  0
 17 18  1  0  0  0  0
 17 38  1  0  0  0  0
 17 39  1  0  0  0  0
 18 19  1  0  0  0  0
 18 40  1  0  0  0  0
 19 41  1  0  0  0  0
 19 42  1  0  0  0  0
 19 43  1  0  0  0  0
M  END
> <s_m_source_file>
AV-unprocessed.smi

> <i_m_source_file_index>
1840

> <i_lp_mmshare_version>
43012

> <i_f3d_flags>
0

> <s_epik_input>
bjFbY0hdW2NIXVtjSF1uMVtDSDJdW0NAQEhdKFtDSDNdKVtOSF1DKD1PKVtOSF1bQ0BASF0yW0NIMl1bQ0gyXVtDSDJdW0NIMl1bQ0BIXTJbQ0gzXQ==

> <s_epik_cmdline>
J2VwaWtfcHl0aG9uJywgJy1waCcsICc3LjAnLCAnLXRuJywgJzgnLCAnLW1hJywgJzIwMCcsICctbWV0YWxfYmluZGluZycsICctaW1hZScsICc8aW5maWxlLm1hZT4nLCAnLW9tYWUnLCAnPG91dGZpbGUubWFlPic=

> <r_lp_tautomer_probability>
1

> <r_epik_Ionization_Penalty>
7.38659e-05

> <r_epik_Ionization_Penalty_Charging>
0

> <r_epik_Ionization_Penalty_Neutral>
7.38659e-05

> <r_epik_State_Penalty>
-0

> <r_epik_Charging_Adjusted_Penalty>
0

> <i_epik_Tot_Q>
0

> <i_epik_Tot_abs_Q>
0

> <r_epik_Metal_State_Penalty>
-0

> <b_epik_Metal_Only>
0

> <s_lp_Force_Field>
OPLS_2005

> <r_lp_Energy>
6.60397

> <b_lp_Chiralities_Consistent>
1

> <s_lp_Variant>
AV-unprocessed.smi:1840-5

> <Gold.Version>
5.8.1

> <Gold.Id.Protein>
6NUR|6NUR_protein|mol2

> <Gold.PLP.Fitness>
36.9946

> <Gold.PLP.PLP>
-29.9904

> <Gold.PLP.part.hbond>
-2.9895

> <Gold.PLP.part.metal>
0.0000

> <Gold.PLP.part.buried>
-3.1935

> <Gold.PLP.part.nonpolar>
-23.4734

> <Gold.PLP.part.repulsive>
0.1491

> <Gold.PLP.ligand.clash>
0.0000

> <Gold.PLP.ligand.torsion>
0.8019

> <Gold.PLP.Chemscore.Hbond>
2.8640

> <Gold.PLP.Chemscore.CHOScore>
0.0000

> <Gold.PLP.Chemscore.Metal>
0.0000

> <Gold.Chemscore.Hbonds>
donor molecule, donor type, donor heavy atom, donor atom, acceptor molecule, acceptor atom, score
      L1  H     9    29       P1  7948  1.00
      L1  H    12    30       P1  7948  0.86
      P1  H  7989  7998       L1     8  1.00

> <Gold.PLP.Chemscore.Internal.Correction>
0.0159

> <Gold.Rescore>
     Score         DG    S(hbond)    S(metal)    S(lipo)     H(rot)  DE(clash)    DE(int)     intcor
     18.14     -18.82       2.67        0.00      72.00       1.56       0.14       0.55       ----

> <Gold.Chemscore.Fitness>
18.1368

> <Gold.Chemscore.DG>
-18.8221

> <Gold.Chemscore.ZeroCoef>
-5.4800

> <Gold.Chemscore.Hbond>
2.6665

> <Gold.Chemscore.Metal>
0.0000

> <Gold.Chemscore.Lipo>
71.9959

> <Gold.Chemscore.Internal_Hbond>
0.0000

> <Gold.Chemscore.DEClash>
0.1394

> <Gold.Chemscore.DEInternal>
0.5460

> <Gold.Chemscore.Rot>
1.5576

> <Gold.Chemscore.Internal.Correction>
   9.000000E+99

> <Gold.Chemscore.Hbonds>
donor molecule, donor type, donor heavy atom, donor atom, acceptor molecule, acceptor atom, score
      L1  H     9    29       P1  7948  0.94
      L1  H    12    30       P1  7948  0.84
      P1  H  7989  7998       L1     8  0.47

> <Gold.Chemscore.Hbond.Weighted>
-8.9061

> <Gold.Chemscore.Metal.Weighted>
-0.0000

> <Gold.Chemscore.Lipo.Weighted>
-8.4235

> <Gold.Chemscore.Internal_Hbond.Weighted>
0.0000

> <Gold.Chemscore.DEClash.Weighted>
0.1394

> <Gold.Chemscore.DEInternal.Weighted>
0.5460

> <Gold.Chemscore.Rot.Weighted>
3.9875

> <Gold.Chemscore.Internal.Correction.Weighted>
   9.000000E+99

> <Gold.Protein.RotatedTorsions>
[ 6907 6896 6895 6894 ] final  109.19 input  -60.11 | X-H torsion
[ 7974 7965 7964 7962 ] final  107.42 input  175.53 | X-H torsion
[ 8008 7997 7996 7995 ] final  -76.19 input   59.86 | X-H torsion
[ 10167 10162 10161 10158 ] final   24.58 input  -65.29 | X-H torsion
[ 10718 10713 10712 10709 ] final -126.61 input   66.30 | X-H torsion
[ 10763 10752 10751 10750 ] final  -92.36 input  -60.55 | X-H torsion
[ 11005 11000 10999 10996 ] final  100.48 input  -57.11 | X-H torsion

> <Gold.Protein.ActiveResidues>
 VAL166  LYS551  ARG553  GLY616  TRP617  ASP618  TYR619  PRO620  LYS621  CYS622 
 ASP623  PHE694  ASN695  SER759  ASP760  ASP761  ALA762  ILE779  LEU786  VAL792 
 PHE793  MET794  SER795  GLU796  ALA797  LYS798  CYS799  TRP800  GLU811  SER814 

> <Gold.Protein.RotatedAtoms>
  152.5078  133.8980  159.7426 H   0  0  0  0  0  0  0  0  0  0  0  0  # atno 6907 bound_to 6896
  150.9402  133.6656  159.2799 H   0  0  0  0  0  0  0  0  0  0  0  0  # atno 6908 bound_to 6896
  151.3970  135.0970  159.9596 H   0  0  0  0  0  0  0  0  0  0  0  0  # atno 6909 bound_to 6896
  145.2938  139.2591  143.3850 H   0  0  0  0  0  0  0  0  0  0  0  0  # atno 7974 bound_to 7965
  154.5483  140.0731  156.8626 H   0  0  0  0  0  0  0  0  0  0  0  0  # atno 8008 bound_to 7997
  155.3043  140.3386  155.4228 H   0  0  0  0  0  0  0  0  0  0  0  0  # atno 8009 bound_to 7997
  156.1938  140.1696  156.8024 H   0  0  0  0  0  0  0  0  0  0  0  0  # atno 8010 bound_to 7997
  140.5176  144.0056  150.6401 H   0  0  0  0  0  0  0  0  0  0  0  0  # atno 10167 bound_to 10162
  156.1780  130.6713  151.0268 H   0  0  0  0  0  0  0  0  0  0  0  0  # atno 10718 bound_to 10713
  154.6854  135.5234  153.8319 H   0  0  0  0  0  0  0  0  0  0  0  0  # atno 10763 bound_to 10752
  153.0593  135.6562  154.0510 H   0  0  0  0  0  0  0  0  0  0  0  0  # atno 10764 bound_to 10752
  154.0391  135.2978  155.3337 H   0  0  0  0  0  0  0  0  0  0  0  0  # atno 10765 bound_to 10752
  139.8771  134.9142  156.4762 H   0  0  0  0  0  0  0  0  0  0  0  0  # atno 11005 bound_to 11000
  146.3175  140.3436  142.8650 LP  0  0  0  0  0  0  0  0  0  0  0  0  # atno 17320 bound_to 7965
  144.9150  140.7802  143.5784 LP  0  0  0  0  0  0  0  0  0  0  0  0  # atno 17321 bound_to 7965
  140.3396  143.3028  152.0602 LP  0  0  0  0  0  0  0  0  0  0  0  0  # atno 17342 bound_to 10162
  139.4914  144.6452  151.6794 LP  0  0  0  0  0  0  0  0  0  0  0  0  # atno 17343 bound_to 10162
  157.6849  131.0827  150.7270 LP  0  0  0  0  0  0  0  0  0  0  0  0  # atno 17370 bound_to 10713
  156.7327  130.4714  149.5496 LP  0  0  0  0  0  0  0  0  0  0  0  0  # atno 17371 bound_to 10713
  140.8760  133.7953  155.9415 LP  0  0  0  0  0  0  0  0  0  0  0  0  # atno 17394 bound_to 11000
  140.8903  134.2503  157.5098 LP  0  0  0  0  0  0  0  0  0  0  0  0  # atno 17395 bound_to 11000

$$$$
