AV-unprocessed.smi:1803|AV-procd|sdf|7290|dock3
  -GOLD-   22720 8543D 1   1.00000     0.00000
 Structure written by MMmdl.
 35 37  0  0  0  0  0  0  0  0  3 V2000
  148.5040  139.9903  155.4944 O   0  0  0  0  0  0  0  0  0  0  0  0
  149.1942  139.8739  154.4829 C   0  0  0  0  0  0  0  0  0  0  0  0
  150.5313  140.1133  154.4530 N   0  5  0  0  0  0  0  0  0  0  0  0
  151.3626  139.6879  155.4233 C   0  0  0  0  0  0  0  0  0  0  0  0
  152.6695  139.4661  155.2087 N   0  0  0  0  0  0  0  0  0  0  0  0
  153.3380  139.0105  156.3367 N   0  0  0  0  0  0  0  0  0  0  0  0
  152.5174  138.9137  157.3822 C   0  0  0  0  0  0  0  0  0  0  0  0
  150.8517  139.3609  157.0812 S   0  0  0  0  0  0  0  0  0  0  0  0
  148.6062  139.4929  153.3342 N   0  0  0  0  0  0  0  0  0  0  0  0
  147.1937  139.1843  153.1396 C   0  0  1  0  0  0  0  0  0  0  0  0
  146.7893  139.0428  151.6557 C   0  0  0  0  0  0  0  0  0  0  0  0
  145.9481  137.7641  151.5941 C   0  0  0  0  0  0  0  0  0  0  0  0
  146.5193  136.9376  152.6640 N   0  3  2  0  0  0  0  0  0  0  0  0
  145.7879  135.7215  153.0754 C   0  0  0  0  0  0  0  0  0  0  0  0
  146.6512  134.9466  154.0943 C   0  0  0  0  0  0  0  0  0  0  0  0
  147.1091  135.8382  155.2704 C   0  0  0  0  0  0  0  0  0  0  0  0
  147.7615  137.1445  154.7714 C   0  0  0  0  0  0  0  0  0  0  0  0
  146.7998  137.8423  153.7914 C   0  0  1  0  0  0  0  0  0  0  0  0
  152.8951  138.5759  158.3358 H   0  0  0  0  0  0  0  0  0  0  0  0
  149.2017  139.4104  152.5232 H   0  0  0  0  0  0  0  0  0  0  0  0
  146.6056  139.9772  153.6058 H   0  0  0  0  0  0  0  0  0  0  0  0
  146.2478  139.9137  151.2855 H   0  0  0  0  0  0  0  0  0  0  0  0
  147.6754  138.9198  151.0307 H   0  0  0  0  0  0  0  0  0  0  0  0
  144.9025  137.9830  151.8155 H   0  0  0  0  0  0  0  0  0  0  0  0
  146.0016  137.2709  150.6231 H   0  0  0  0  0  0  0  0  0  0  0  0
  144.8241  135.9922  153.5091 H   0  0  0  0  0  0  0  0  0  0  0  0
  145.5875  135.1000  152.2021 H   0  0  0  0  0  0  0  0  0  0  0  0
  146.1006  134.0842  154.4711 H   0  0  0  0  0  0  0  0  0  0  0  0
  147.5315  134.5499  153.5868 H   0  0  0  0  0  0  0  0  0  0  0  0
  146.2478  136.0811  155.8942 H   0  0  0  0  0  0  0  0  0  0  0  0
  147.8050  135.2912  155.9070 H   0  0  0  0  0  0  0  0  0  0  0  0
  147.9866  137.7975  155.6155 H   0  0  0  0  0  0  0  0  0  0  0  0
  148.7106  136.9197  154.2822 H   0  0  0  0  0  0  0  0  0  0  0  0
  145.8557  138.0171  154.3122 H   0  0  0  0  0  0  0  0  0  0  0  0
  147.4195  136.6343  152.3204 H   0  0  0  0  0  0  0  0  0  0  0  0
  1  2  2  0  0  0  0
  2  3  1  0  0  0  0
  2  9  1  0  0  0  0
  3  4  1  0  0  0  0
  4  8  1  0  0  0  0
  4  5  2  0  0  0  0
  5  6  1  0  0  0  0
  6  7  2  0  0  0  0
  7  8  1  0  0  0  0
  7 19  1  0  0  0  0
  9 10  1  0  0  0  0
  9 20  1  0  0  0  0
 10 18  1  0  0  0  0
 10 11  1  0  0  0  0
 10 21  1  0  0  0  0
 11 12  1  0  0  0  0
 11 22  1  0  0  0  0
 11 23  1  0  0  0  0
 12 13  1  0  0  0  0
 12 24  1  0  0  0  0
 12 25  1  0  0  0  0
 13 18  1  0  0  0  0
 13 14  1  0  0  0  0
 13 35  1  0  0  0  0
 14 15  1  0  0  0  0
 14 26  1  0  0  0  0
 14 27  1  0  0  0  0
 15 16  1  0  0  0  0
 15 28  1  0  0  0  0
 15 29  1  0  0  0  0
 16 17  1  0  0  0  0
 16 30  1  0  0  0  0
 16 31  1  0  0  0  0
 17 18  1  0  0  0  0
 17 32  1  0  0  0  0
 17 33  1  0  0  0  0
 18 34  1  0  0  0  0
M  CHG  1   3  -1
M  CHG  1  13   1
M  END
> <s_m_source_file>
AV-unprocessed.smi

> <i_m_source_file_index>
1803

> <i_lp_mmshare_version>
43012

> <i_f3d_flags>
0

> <s_epik_input>
czFbY0hdbm5jMVtOSF1DKD1PKVtOSF1bQ0BIXShbQ0gyXVtDSDJdMilbQ0BASF0oTjIzKVtDSDJdW0NIMl1bQ0gyXVtDSDJdMw==

> <s_epik_cmdline>
J2VwaWtfcHl0aG9uJywgJy1waCcsICc3LjAnLCAnLXRuJywgJzgnLCAnLW1hJywgJzIwMCcsICctbWV0YWxfYmluZGluZycsICctaW1hZScsICc8aW5maWxlLm1hZT4nLCAnLW9tYWUnLCAnPG91dGZpbGUubWFlPic=

> <r_lp_tautomer_probability>
1

> <r_epik_Ionization_Penalty>
3.78828

> <r_epik_Ionization_Penalty_Charging>
3.7591

> <r_epik_Ionization_Penalty_Neutral>
0.0291838

> <r_epik_State_Penalty>
3.757

> <r_epik_Charging_Adjusted_Penalty>
7.51609

> <i_epik_Tot_Q>
0

> <i_epik_Tot_abs_Q>
2

> <r_epik_Metal_State_Penalty>
0.558016

> <b_epik_Metal_Only>
1

> <s_lp_Force_Field>
OPLS_2005

> <r_lp_Energy>
34.7934

> <b_lp_Chiralities_Consistent>
1

> <s_lp_Variant>
AV-unprocessed.smi:1803-12

> <Gold.Version>
5.8.1

> <Gold.Id.Protein>
6NUR|6NUR_protein|mol2

> <Gold.PLP.Fitness>
37.9306

> <Gold.PLP.PLP>
-24.3829

> <Gold.PLP.part.hbond>
-4.8979

> <Gold.PLP.part.metal>
0.0000

> <Gold.PLP.part.buried>
0.3192

> <Gold.PLP.part.nonpolar>
-20.6581

> <Gold.PLP.part.repulsive>
0.2772

> <Gold.PLP.ligand.clash>
0.0000

> <Gold.PLP.ligand.torsion>
0.6062

> <Gold.PLP.Chemscore.Hbond>
4.9192

> <Gold.PLP.Chemscore.CHOScore>
0.0000

> <Gold.PLP.Chemscore.Metal>
0.0000

> <Gold.Chemscore.Hbonds>
donor molecule, donor type, donor heavy atom, donor atom, acceptor molecule, acceptor atom, score
      L1  H     9    20       P1  7957  0.93
      L1  H    13    35       P1  7948  2.00
      P1  H  7989  7998       L1     3  0.95
      P1  H  7997  8008       L1     6  0.94

> <Gold.PLP.Chemscore.Internal.Correction>
0.0024

> <Gold.Rescore>
     Score         DG    S(hbond)    S(metal)    S(lipo)     H(rot)  DE(clash)    DE(int)     intcor
     14.61     -16.84       2.76        0.00      40.16       1.00       0.37       1.86       ----

> <Gold.Chemscore.Fitness>
14.6108

> <Gold.Chemscore.DG>
-16.8385

> <Gold.Chemscore.ZeroCoef>
-5.4800

> <Gold.Chemscore.Hbond>
2.7603

> <Gold.Chemscore.Metal>
0.0000

> <Gold.Chemscore.Lipo>
40.1635

> <Gold.Chemscore.Internal_Hbond>
0.0000

> <Gold.Chemscore.DEClash>
0.3720

> <Gold.Chemscore.DEInternal>
1.8557

> <Gold.Chemscore.Rot>
1.0000

> <Gold.Chemscore.Internal.Correction>
   9.000000E+99

> <Gold.Chemscore.Hbonds>
donor molecule, donor type, donor heavy atom, donor atom, acceptor molecule, acceptor atom, score
      L1  H     9    20       P1  7957  0.85
      L1  H    13    35       P1  7948  1.00
      P1  H  7989  7998       L1     3  0.21
      P1  H  7997  8008       L1     6  0.32

> <Gold.Chemscore.Hbond.Weighted>
-9.2193

> <Gold.Chemscore.Metal.Weighted>
-0.0000

> <Gold.Chemscore.Lipo.Weighted>
-4.6991

> <Gold.Chemscore.Internal_Hbond.Weighted>
0.0000

> <Gold.Chemscore.DEClash.Weighted>
0.3720

> <Gold.Chemscore.DEInternal.Weighted>
1.8557

> <Gold.Chemscore.Rot.Weighted>
2.5600

> <Gold.Chemscore.Internal.Correction.Weighted>
   9.000000E+99

> <Gold.Protein.RotatedTorsions>
[ 6907 6896 6895 6894 ] final  109.46 input  -60.11 | X-H torsion
[ 7974 7965 7964 7962 ] final  124.08 input  175.53 | X-H torsion
[ 8008 7997 7996 7995 ] final  -60.22 input   59.86 | X-H torsion
[ 10167 10162 10161 10158 ] final  -36.52 input  -65.29 | X-H torsion
[ 10718 10713 10712 10709 ] final  173.98 input   66.30 | X-H torsion
[ 10763 10752 10751 10750 ] final    2.78 input  -60.55 | X-H torsion
[ 11005 11000 10999 10996 ] final    4.21 input  -57.11 | X-H torsion

> <Gold.Protein.ActiveResidues>
 VAL166  LYS551  ARG553  GLY616  TRP617  ASP618  TYR619  PRO620  LYS621  CYS622 
 ASP623  PHE694  ASN695  SER759  ASP760  ASP761  ALA762  ILE779  LEU786  VAL792 
 PHE793  MET794  SER795  GLU796  ALA797  LYS798  CYS799  TRP800  GLU811  SER814 

> <Gold.Protein.RotatedAtoms>
  152.5066  133.8941  159.7408 H   0  0  0  0  0  0  0  0  0  0  0  0  # atno 6907 bound_to 6896
  150.9372  133.6689  159.2805 H   0  0  0  0  0  0  0  0  0  0  0  0  # atno 6908 bound_to 6896
  151.4013  135.0976  159.9609 H   0  0  0  0  0  0  0  0  0  0  0  0  # atno 6909 bound_to 6896
  145.0885  139.3604  143.4873 H   0  0  0  0  0  0  0  0  0  0  0  0  # atno 7974 bound_to 7965
  154.4388  140.1044  156.6239 H   0  0  0  0  0  0  0  0  0  0  0  0  # atno 8008 bound_to 7997
  155.5678  140.3488  155.4489 H   0  0  0  0  0  0  0  0  0  0  0  0  # atno 8009 bound_to 7997
  156.0412  140.1282  157.0142 H   0  0  0  0  0  0  0  0  0  0  0  0  # atno 8010 bound_to 7997
  140.7140  143.3403  151.2372 H   0  0  0  0  0  0  0  0  0  0  0  0  # atno 10167 bound_to 10162
  156.9563  131.0047  151.2937 H   0  0  0  0  0  0  0  0  0  0  0  0  # atno 10718 bound_to 10713
  153.2913  135.6949  153.7290 H   0  0  0  0  0  0  0  0  0  0  0  0  # atno 10763 bound_to 10752
  153.6240  135.3422  155.3021 H   0  0  0  0  0  0  0  0  0  0  0  0  # atno 10764 bound_to 10752
  154.8525  135.4393  154.1997 H   0  0  0  0  0  0  0  0  0  0  0  0  # atno 10765 bound_to 10752
  140.5845  133.9981  155.8062 H   0  0  0  0  0  0  0  0  0  0  0  0  # atno 11005 bound_to 11000
  146.3531  140.0708  142.8623 LP  0  0  0  0  0  0  0  0  0  0  0  0  # atno 17320 bound_to 7965
  145.1094  140.9396  143.4665 LP  0  0  0  0  0  0  0  0  0  0  0  0  # atno 17321 bound_to 7965
  139.6908  143.9695  152.2858 LP  0  0  0  0  0  0  0  0  0  0  0  0  # atno 17342 bound_to 10162
  139.9356  144.6714  150.8319 LP  0  0  0  0  0  0  0  0  0  0  0  0  # atno 17343 bound_to 10162
  157.5688  130.8296  149.8363 LP  0  0  0  0  0  0  0  0  0  0  0  0  # atno 17370 bound_to 10713
  156.0341  130.3756  150.1608 LP  0  0  0  0  0  0  0  0  0  0  0  0  # atno 17371 bound_to 10713
  141.0975  133.9821  157.3136 LP  0  0  0  0  0  0  0  0  0  0  0  0  # atno 17394 bound_to 11000
  139.9302  135.0200  156.8373 LP  0  0  0  0  0  0  0  0  0  0  0  0  # atno 17395 bound_to 11000

$$$$
