AV-unprocessed.smi:1197|AV-procd|sdf|5008|dock8
  -GOLD-   22720 4 23D 1   1.00000     0.00000
 Structure written by MMmdl.
 40 41  0  0  0  0  0  0  0  0  1 V2000
  143.0376  132.5438  148.2813 C   0  0  0  0  0  0  0  0  0  0  0  0
  143.8906  132.1037  149.3324 O   0  0  0  0  0  0  0  0  0  0  0  0
  144.5458  133.0558  150.0863 C   0  0  0  0  0  0  0  0  0  0  0  0
  145.7295  132.6878  150.7556 C   0  0  0  0  0  0  0  0  0  0  0  0
  146.4037  133.6519  151.5295 C   0  0  0  0  0  0  0  0  0  0  0  0
  145.8738  134.9630  151.6044 C   0  0  0  0  0  0  0  0  0  0  0  0
  146.4417  136.0270  152.3586 N   0  0  0  0  0  0  0  0  0  0  0  0
  145.8271  136.9860  153.0727 C   0  0  0  0  0  0  0  0  0  0  0  0
  144.6119  137.0925  153.2328 O   0  0  0  0  0  0  0  0  0  0  0  0
  146.7180  137.8269  153.6172 N   0  0  0  0  0  0  0  0  0  0  0  0
  146.3832  138.9786  154.4462 C   0  0  0  0  0  0  0  0  0  0  0  0
  147.3979  140.1226  154.2587 C   0  0  0  0  0  0  0  0  0  0  0  0
  148.6557  139.9537  154.9839 N   0  0  0  0  0  0  0  0  0  0  0  0
  149.3548  141.2183  155.2021 C   0  0  0  0  0  0  0  0  0  0  0  0
  150.6883  141.0163  155.9429 C   0  0  0  0  0  0  0  0  0  0  0  0
  151.5053  140.1016  155.2199 O   0  0  0  0  0  0  0  0  0  0  0  0
  150.8762  138.8390  155.0274 C   0  0  0  0  0  0  0  0  0  0  0  0
  149.5458  139.0362  154.2802 C   0  0  0  0  0  0  0  0  0  0  0  0
  144.6797  135.2260  150.9013 C   0  0  0  0  0  0  0  0  0  0  0  0
  144.0277  134.3066  150.1592 N   0  0  0  0  0  0  0  0  0  0  0  0
  142.6048  131.6771  147.7816 H   0  0  0  0  0  0  0  0  0  0  0  0
  143.5877  133.1161  147.5328 H   0  0  0  0  0  0  0  0  0  0  0  0
  142.2152  133.1503  148.6633 H   0  0  0  0  0  0  0  0  0  0  0  0
  146.1124  131.6807  150.6814 H   0  0  0  0  0  0  0  0  0  0  0  0
  147.2995  133.3565  152.0516 H   0  0  0  0  0  0  0  0  0  0  0  0
  147.4507  136.0474  152.3742 H   0  0  0  0  0  0  0  0  0  0  0  0
  147.6982  137.6647  153.4390 H   0  0  0  0  0  0  0  0  0  0  0  0
  145.3816  139.2997  154.1626 H   0  0  0  0  0  0  0  0  0  0  0  0
  146.3315  138.6808  155.4950 H   0  0  0  0  0  0  0  0  0  0  0  0
  147.6214  140.2008  153.1938 H   0  0  0  0  0  0  0  0  0  0  0  0
  146.9363  141.0713  154.5371 H   0  0  0  0  0  0  0  0  0  0  0  0
  149.5443  141.7067  154.2451 H   0  0  0  0  0  0  0  0  0  0  0  0
  148.7354  141.8996  155.7845 H   0  0  0  0  0  0  0  0  0  0  0  0
  151.2153  141.9655  156.0400 H   0  0  0  0  0  0  0  0  0  0  0  0
  150.5152  140.6401  156.9525 H   0  0  0  0  0  0  0  0  0  0  0  0
  151.5411  138.1928  154.4544 H   0  0  0  0  0  0  0  0  0  0  0  0
  150.7104  138.3558  155.9917 H   0  0  0  0  0  0  0  0  0  0  0  0
  149.0574  138.0689  154.1557 H   0  0  0  0  0  0  0  0  0  0  0  0
  149.7489  139.4141  153.2769 H   0  0  0  0  0  0  0  0  0  0  0  0
  144.2303  136.2079  150.9335 H   0  0  0  0  0  0  0  0  0  0  0  0
  1  2  1  0  0  0  0
  1 21  1  0  0  0  0
  1 22  1  0  0  0  0
  1 23  1  0  0  0  0
  2  3  1  0  0  0  0
  3 20  1  0  0  0  0
  3  4  2  0  0  0  0
  4  5  1  0  0  0  0
  4 24  1  0  0  0  0
  5  6  2  0  0  0  0
  5 25  1  0  0  0  0
  6  7  1  0  0  0  0
  6 19  1  0  0  0  0
  7  8  1  0  0  0  0
  7 26  1  0  0  0  0
  8  9  2  0  0  0  0
  8 10  1  0  0  0  0
 10 11  1  0  0  0  0
 10 27  1  0  0  0  0
 11 12  1  0  0  0  0
 11 28  1  0  0  0  0
 11 29  1  0  0  0  0
 12 13  1  0  0  0  0
 12 30  1  0  0  0  0
 12 31  1  0  0  0  0
 13 18  1  0  0  0  0
 13 14  1  0  0  0  0
 14 15  1  0  0  0  0
 14 32  1  0  0  0  0
 14 33  1  0  0  0  0
 15 16  1  0  0  0  0
 15 34  1  0  0  0  0
 15 35  1  0  0  0  0
 16 17  1  0  0  0  0
 17 18  1  0  0  0  0
 17 36  1  0  0  0  0
 17 37  1  0  0  0  0
 18 38  1  0  0  0  0
 18 39  1  0  0  0  0
 19 20  2  0  0  0  0
 19 40  1  0  0  0  0
M  END
> <s_m_source_file>
AV-unprocessed.smi

> <i_m_source_file_index>
1197

> <i_lp_mmshare_version>
43012

> <i_f3d_flags>
0

> <s_epik_input>
W0NIM11PYzFbY0hdW2NIXWMoW2NIXW4xKVtOSF1DKD1PKVtOSF1bQ0gyXVtDSDJdTjJbQ0gyXVtDSDJdT1tDSDJdW0NIMl0y

> <s_epik_cmdline>
J2VwaWtfcHl0aG9uJywgJy1waCcsICc3LjAnLCAnLXRuJywgJzgnLCAnLW1hJywgJzIwMCcsICctbWV0YWxfYmluZGluZycsICctaW1hZScsICc8aW5maWxlLm1hZT4nLCAnLW9tYWUnLCAnPG91dGZpbGUubWFlPic=

> <r_lp_tautomer_probability>
1

> <r_epik_Ionization_Penalty>
0.266083

> <r_epik_Ionization_Penalty_Charging>
0

> <r_epik_Ionization_Penalty_Neutral>
0.266083

> <r_epik_State_Penalty>
0.257924

> <r_epik_Charging_Adjusted_Penalty>
0.257924

> <i_epik_Tot_Q>
0

> <i_epik_Tot_abs_Q>
0

> <r_epik_Metal_State_Penalty>
0.257922

> <b_epik_Metal_Only>
0

> <s_lp_Force_Field>
OPLS_2005

> <r_lp_Energy>
24.2104

> <b_lp_Chiralities_Consistent>
1

> <s_lp_Variant>
AV-unprocessed.smi:1197-1

> <Gold.Version>
5.8.1

> <Gold.Id.Protein>
6NUR|6NUR_protein|mol2

> <Gold.PLP.Fitness>
41.0677

> <Gold.PLP.PLP>
-33.9674

> <Gold.PLP.part.hbond>
-3.3121

> <Gold.PLP.part.metal>
0.0000

> <Gold.PLP.part.buried>
-3.2047

> <Gold.PLP.part.nonpolar>
-29.5777

> <Gold.PLP.part.repulsive>
1.3547

> <Gold.PLP.ligand.clash>
0.0000

> <Gold.PLP.ligand.torsion>
1.0852

> <Gold.PLP.Chemscore.Hbond>
2.0813

> <Gold.PLP.Chemscore.CHOScore>
1.0000

> <Gold.PLP.Chemscore.Metal>
0.0000

> <Gold.Chemscore.Hbonds>
donor molecule, donor type, donor heavy atom, donor atom, acceptor molecule, acceptor atom, score
      L1  H     7    26       P1  7948  1.00
      P1  H  7989  7998       L1    16  1.00
      P1  H 10785 10796       L1     2  0.11
      L1  C    19    40       P1 10171  0.72

> <Gold.PLP.Chemscore.Internal.Correction>
0.0268

> <Gold.Rescore>
     Score         DG    S(hbond)    S(metal)    S(lipo)     H(rot)  DE(clash)    DE(int)     intcor
     12.61     -15.06       1.38        0.00      81.02       1.76       0.41       2.04       ----

> <Gold.Chemscore.Fitness>
12.6116

> <Gold.Chemscore.DG>
-15.0576

> <Gold.Chemscore.ZeroCoef>
-5.4800

> <Gold.Chemscore.Hbond>
1.3806

> <Gold.Chemscore.Metal>
0.0000

> <Gold.Chemscore.Lipo>
81.0164

> <Gold.Chemscore.Internal_Hbond>
0.0000

> <Gold.Chemscore.DEClash>
0.4091

> <Gold.Chemscore.DEInternal>
2.0369

> <Gold.Chemscore.Rot>
1.7626

> <Gold.Chemscore.Internal.Correction>
   9.000000E+99

> <Gold.Chemscore.Hbonds>
donor molecule, donor type, donor heavy atom, donor atom, acceptor molecule, acceptor atom, score
      L1  H     7    26       P1  7948  0.97
      L1  H    10    27       P1  7948  0.02
      P1  H  7989  7998       L1    16  0.24

> <Gold.Chemscore.Hbond.Weighted>
-4.6110

> <Gold.Chemscore.Metal.Weighted>
-0.0000

> <Gold.Chemscore.Lipo.Weighted>
-9.4789

> <Gold.Chemscore.Internal_Hbond.Weighted>
0.0000

> <Gold.Chemscore.DEClash.Weighted>
0.4091

> <Gold.Chemscore.DEInternal.Weighted>
2.0369

> <Gold.Chemscore.Rot.Weighted>
4.5123

> <Gold.Chemscore.Internal.Correction.Weighted>
   9.000000E+99

> <Gold.Protein.RotatedTorsions>
[ 6907 6896 6895 6894 ] final -169.16 input  -60.11 | X-H torsion
[ 7974 7965 7964 7962 ] final   73.49 input  175.53 | X-H torsion
[ 8008 7997 7996 7995 ] final   46.28 input   59.86 | X-H torsion
[ 10167 10162 10161 10158 ] final   65.01 input  -65.29 | X-H torsion
[ 10718 10713 10712 10709 ] final -161.62 input   66.30 | X-H torsion
[ 10763 10752 10751 10750 ] final -169.81 input  -60.55 | X-H torsion
[ 11005 11000 10999 10996 ] final   11.99 input  -57.11 | X-H torsion

> <Gold.Protein.ActiveResidues>
 VAL166  LYS551  ARG553  GLY616  TRP617  ASP618  TYR619  PRO620  LYS621  CYS622 
 ASP623  PHE694  ASN695  SER759  ASP760  ASP761  ALA762  ILE779  LEU786  VAL792 
 PHE793  MET794  SER795  GLU796  ALA797  LYS798  CYS799  TRP800  GLU811  SER814 

> <Gold.Protein.RotatedAtoms>
  151.4871  133.3533  159.2847 H   0  0  0  0  0  0  0  0  0  0  0  0  # atno 6907 bound_to 6896
  150.8859  134.8259  159.7269 H   0  0  0  0  0  0  0  0  0  0  0  0  # atno 6908 bound_to 6896
  152.4792  134.4774  159.9707 H   0  0  0  0  0  0  0  0  0  0  0  0  # atno 6909 bound_to 6896
  145.7401  139.2718  143.1491 H   0  0  0  0  0  0  0  0  0  0  0  0  # atno 7974 bound_to 7965
  155.3499  140.3413  155.4239 H   0  0  0  0  0  0  0  0  0  0  0  0  # atno 8008 bound_to 7997
  156.1769  140.1651  156.8381 H   0  0  0  0  0  0  0  0  0  0  0  0  # atno 8009 bound_to 7997
  154.5292  140.0749  156.8297 H   0  0  0  0  0  0  0  0  0  0  0  0  # atno 8010 bound_to 7997
  140.1160  144.4775  150.6949 H   0  0  0  0  0  0  0  0  0  0  0  0  # atno 10167 bound_to 10162
  156.5988  130.8801  151.2908 H   0  0  0  0  0  0  0  0  0  0  0  0  # atno 10718 bound_to 10713
  154.6482  135.2908  155.0019 H   0  0  0  0  0  0  0  0  0  0  0  0  # atno 10763 bound_to 10752
  154.1122  135.6561  153.4891 H   0  0  0  0  0  0  0  0  0  0  0  0  # atno 10764 bound_to 10752
  153.0362  135.5267  154.7379 H   0  0  0  0  0  0  0  0  0  0  0  0  # atno 10765 bound_to 10752
  140.4970  134.0783  155.7784 H   0  0  0  0  0  0  0  0  0  0  0  0  # atno 11005 bound_to 11000
  146.0455  140.8122  142.9807 LP  0  0  0  0  0  0  0  0  0  0  0  0  # atno 17320 bound_to 7965
  144.6872  140.2975  143.7268 LP  0  0  0  0  0  0  0  0  0  0  0  0  # atno 17321 bound_to 7965
  140.6899  143.2370  151.5159 LP  0  0  0  0  0  0  0  0  0  0  0  0  # atno 17342 bound_to 10162
  139.5594  144.2194  152.1666 LP  0  0  0  0  0  0  0  0  0  0  0  0  # atno 17343 bound_to 10162
  157.7285  130.9657  150.1745 LP  0  0  0  0  0  0  0  0  0  0  0  0  # atno 17370 bound_to 10713
  156.2487  130.3698  149.8256 LP  0  0  0  0  0  0  0  0  0  0  0  0  # atno 17371 bound_to 10713
  141.1455  133.9063  157.2226 LP  0  0  0  0  0  0  0  0  0  0  0  0  # atno 17394 bound_to 11000
  139.9735  135.0121  156.9573 LP  0  0  0  0  0  0  0  0  0  0  0  0  # atno 17395 bound_to 11000

$$$$
