AV-unprocessed.smi:1647|AV-procd|sdf|6625|dock1
  -GOLD-   22720 7323D 1   1.00000     0.00000
 Structure written by MMmdl.
 39 40  0  0  0  0  0  0  0  0  1 V2000
  145.5155  135.9685  151.0809 C   0  0  0  0  0  0  0  0  0  0  0  0
  145.7216  136.9035  152.0202 C   0  0  0  0  0  0  0  0  0  0  0  0
  146.3519  138.2571  151.7581 C   0  0  0  0  0  0  0  0  0  0  0  0
  147.6477  138.3789  152.4145 N   0  0  0  0  0  0  0  0  0  0  0  0
  147.9629  139.3095  153.3268 C   0  0  0  0  0  0  0  0  0  0  0  0
  147.1845  140.1897  153.6930 O   0  0  0  0  0  0  0  0  0  0  0  0
  149.2255  139.1527  153.7603 N   0  0  0  0  0  0  0  0  0  0  0  0
  149.9243  139.8686  154.7708 C   0  0  0  0  0  0  0  0  0  0  0  0
  151.2045  139.5258  155.2657 C   0  0  0  0  0  0  0  0  0  0  0  0
  151.7956  140.3402  156.2508 C   0  0  0  0  0  0  0  0  0  0  0  0
  151.1016  141.4820  156.7152 C   0  0  0  0  0  0  0  0  0  0  0  0
  151.6869  142.3200  157.6892 N   0  0  0  0  0  0  0  0  0  0  0  0
  151.5914  143.7536  157.4040 C   0  0  0  0  0  0  0  0  0  0  0  0
  152.5517  144.5649  158.2905 C   0  0  0  0  0  0  0  0  0  0  0  0
  152.3340  144.2454  159.7766 C   0  0  0  0  0  0  0  0  0  0  0  0
  152.4600  142.7332  160.0103 C   0  0  0  0  0  0  0  0  0  0  0  0
  151.5021  141.9512  159.0956 C   0  0  0  0  0  0  0  0  0  0  0  0
  149.8741  141.8061  156.2403 N   0  0  0  0  0  0  0  0  0  0  0  0
  149.3115  141.0235  155.2965 C   0  0  0  0  0  0  0  0  0  0  0  0
  145.7943  136.1369  150.0509 H   0  0  0  0  0  0  0  0  0  0  0  0
  145.0627  135.0205  151.3317 H   0  0  0  0  0  0  0  0  0  0  0  0
  145.4308  136.6987  153.0403 H   0  0  0  0  0  0  0  0  0  0  0  0
  146.4982  138.3694  150.6838 H   0  0  0  0  0  0  0  0  0  0  0  0
  145.6850  139.0615  152.0735 H   0  0  0  0  0  0  0  0  0  0  0  0
  148.3504  137.6983  152.1649 H   0  0  0  0  0  0  0  0  0  0  0  0
  149.7594  138.4276  153.3038 H   0  0  0  0  0  0  0  0  0  0  0  0
  151.7534  138.6692  154.9085 H   0  0  0  0  0  0  0  0  0  0  0  0
  152.7680  140.0787  156.6411 H   0  0  0  0  0  0  0  0  0  0  0  0
  151.8093  143.9717  156.3594 H   0  0  0  0  0  0  0  0  0  0  0  0
  150.5641  144.0741  157.5814 H   0  0  0  0  0  0  0  0  0  0  0  0
  153.5823  144.3371  158.0149 H   0  0  0  0  0  0  0  0  0  0  0  0
  152.4115  145.6315  158.1127 H   0  0  0  0  0  0  0  0  0  0  0  0
  153.0576  144.7840  160.3889 H   0  0  0  0  0  0  0  0  0  0  0  0
  151.3451  144.5854  160.0861 H   0  0  0  0  0  0  0  0  0  0  0  0
  153.4864  142.4182  159.8176 H   0  0  0  0  0  0  0  0  0  0  0  0
  152.2539  142.4971  161.0546 H   0  0  0  0  0  0  0  0  0  0  0  0
  150.4688  142.1483  159.3842 H   0  0  0  0  0  0  0  0  0  0  0  0
  151.6766  140.8824  159.2281 H   0  0  0  0  0  0  0  0  0  0  0  0
  148.3371  141.3339  154.9478 H   0  0  0  0  0  0  0  0  0  0  0  0
  1  2  2  0  0  0  0
  1 20  1  0  0  0  0
  1 21  1  0  0  0  0
  2  3  1  0  0  0  0
  2 22  1  0  0  0  0
  3  4  1  0  0  0  0
  3 23  1  0  0  0  0
  3 24  1  0  0  0  0
  4  5  1  0  0  0  0
  4 25  1  0  0  0  0
  5  6  2  0  0  0  0
  5  7  1  0  0  0  0
  7  8  1  0  0  0  0
  7 26  1  0  0  0  0
  8 19  1  0  0  0  0
  8  9  2  0  0  0  0
  9 10  1  0  0  0  0
  9 27  1  0  0  0  0
 10 11  2  0  0  0  0
 10 28  1  0  0  0  0
 11 12  1  0  0  0  0
 11 18  1  0  0  0  0
 12 17  1  0  0  0  0
 12 13  1  0  0  0  0
 13 14  1  0  0  0  0
 13 29  1  0  0  0  0
 13 30  1  0  0  0  0
 14 15  1  0  0  0  0
 14 31  1  0  0  0  0
 14 32  1  0  0  0  0
 15 16  1  0  0  0  0
 15 33  1  0  0  0  0
 15 34  1  0  0  0  0
 16 17  1  0  0  0  0
 16 35  1  0  0  0  0
 16 36  1  0  0  0  0
 17 37  1  0  0  0  0
 17 38  1  0  0  0  0
 18 19  2  0  0  0  0
 19 39  1  0  0  0  0
M  END
> <s_m_source_file>
AV-unprocessed.smi

> <i_m_source_file_index>
1647

> <i_lp_mmshare_version>
43012

> <i_f3d_flags>
0

> <s_epik_input>
W0NIMl09W0NIXVtDSDJdW05IXUMoPU8pW05IXWMxW2NIXVtjSF1jKG5bY0hdMSlOMltDSDJdW0NIMl1bQ0gyXVtDSDJdW0NIMl0y

> <s_epik_cmdline>
J2VwaWtfcHl0aG9uJywgJy1waCcsICc3LjAnLCAnLXRuJywgJzgnLCAnLW1hJywgJzIwMCcsICctbWV0YWxfYmluZGluZycsICctaW1hZScsICc8aW5maWxlLm1hZT4nLCAnLW9tYWUnLCAnPG91dGZpbGUubWFlPic=

> <r_lp_tautomer_probability>
1

> <r_epik_Ionization_Penalty>
0.279668

> <r_epik_Ionization_Penalty_Charging>
0

> <r_epik_Ionization_Penalty_Neutral>
0.279668

> <r_epik_State_Penalty>
0.266067

> <r_epik_Charging_Adjusted_Penalty>
0.266067

> <i_epik_Tot_Q>
0

> <i_epik_Tot_abs_Q>
0

> <r_epik_Metal_State_Penalty>
0.180941

> <b_epik_Metal_Only>
0

> <s_lp_Force_Field>
OPLS_2005

> <r_lp_Energy>
18.0201

> <b_lp_Chiralities_Consistent>
1

> <s_lp_Variant>
AV-unprocessed.smi:1647-1

> <Gold.Version>
5.8.1

> <Gold.Id.Protein>
6NUR|6NUR_protein|mol2

> <Gold.PLP.Fitness>
45.4410

> <Gold.PLP.PLP>
-43.1970

> <Gold.PLP.part.hbond>
-3.0000

> <Gold.PLP.part.metal>
0.0000

> <Gold.PLP.part.buried>
-0.9154

> <Gold.PLP.part.nonpolar>
-40.9535

> <Gold.PLP.part.repulsive>
0.5702

> <Gold.PLP.ligand.clash>
0.0000

> <Gold.PLP.ligand.torsion>
0.5697

> <Gold.PLP.Chemscore.Hbond>
1.0000

> <Gold.PLP.Chemscore.CHOScore>
0.0000

> <Gold.PLP.Chemscore.Metal>
0.0000

> <Gold.Chemscore.Hbonds>
donor molecule, donor type, donor heavy atom, donor atom, acceptor molecule, acceptor atom, score
      L1  H     4    25       P1  7948  1.00

> <Gold.PLP.Chemscore.Internal.Correction>
0.3834

> <Gold.Rescore>
     Score         DG    S(hbond)    S(metal)    S(lipo)     H(rot)  DE(clash)    DE(int)     intcor
     15.74     -18.03       1.00        0.00     107.66       1.32       0.34       1.95       ----

> <Gold.Chemscore.Fitness>
15.7412

> <Gold.Chemscore.DG>
-18.0282

> <Gold.Chemscore.ZeroCoef>
-5.4800

> <Gold.Chemscore.Hbond>
0.9986

> <Gold.Chemscore.Metal>
0.0000

> <Gold.Chemscore.Lipo>
107.6646

> <Gold.Chemscore.Internal_Hbond>
0.0000

> <Gold.Chemscore.DEClash>
0.3395

> <Gold.Chemscore.DEInternal>
1.9475

> <Gold.Chemscore.Rot>
1.3218

> <Gold.Chemscore.Internal.Correction>
   9.000000E+99

> <Gold.Chemscore.Hbonds>
donor molecule, donor type, donor heavy atom, donor atom, acceptor molecule, acceptor atom, score
      L1  H     4    25       P1  7948  0.97

> <Gold.Chemscore.Hbond.Weighted>
-3.3352

> <Gold.Chemscore.Metal.Weighted>
-0.0000

> <Gold.Chemscore.Lipo.Weighted>
-12.5968

> <Gold.Chemscore.Internal_Hbond.Weighted>
0.0000

> <Gold.Chemscore.DEClash.Weighted>
0.3395

> <Gold.Chemscore.DEInternal.Weighted>
1.9475

> <Gold.Chemscore.Rot.Weighted>
3.3838

> <Gold.Chemscore.Internal.Correction.Weighted>
   9.000000E+99

> <Gold.Protein.RotatedTorsions>
[ 6907 6896 6895 6894 ] final  -40.19 input  -60.11 | X-H torsion
[ 7974 7965 7964 7962 ] final   63.03 input  175.53 | X-H torsion
[ 8008 7997 7996 7995 ] final  -72.35 input   59.86 | X-H torsion
[ 10167 10162 10161 10158 ] final -100.49 input  -65.29 | X-H torsion
[ 10718 10713 10712 10709 ] final  -19.75 input   66.30 | X-H torsion
[ 10763 10752 10751 10750 ] final -107.30 input  -60.55 | X-H torsion
[ 11005 11000 10999 10996 ] final -116.64 input  -57.11 | X-H torsion

> <Gold.Protein.ActiveResidues>
 VAL166  LYS551  ARG553  GLY616  TRP617  ASP618  TYR619  PRO620  LYS621  CYS622 
 ASP623  PHE694  ASN695  SER759  ASP760  ASP761  ALA762  ILE779  LEU786  VAL792 
 PHE793  MET794  SER795  GLU796  ALA797  LYS798  CYS799  TRP800  GLU811  SER814 

> <Gold.Protein.RotatedAtoms>
  150.9814  134.9168  159.7845 H   0  0  0  0  0  0  0  0  0  0  0  0  # atno 6907 bound_to 6896
  152.5223  134.3406  159.9225 H   0  0  0  0  0  0  0  0  0  0  0  0  # atno 6908 bound_to 6896
  151.3413  133.3920  159.2706 H   0  0  0  0  0  0  0  0  0  0  0  0  # atno 6909 bound_to 6896
  145.8665  139.3349  143.0788 H   0  0  0  0  0  0  0  0  0  0  0  0  # atno 7974 bound_to 7965
  154.5159  140.0799  156.8080 H   0  0  0  0  0  0  0  0  0  0  0  0  # atno 8008 bound_to 7997
  155.3682  140.3421  155.4224 H   0  0  0  0  0  0  0  0  0  0  0  0  # atno 8009 bound_to 7997
  156.1627  140.1593  156.8572 H   0  0  0  0  0  0  0  0  0  0  0  0  # atno 8010 bound_to 7997
  140.2513  143.3470  152.0712 H   0  0  0  0  0  0  0  0  0  0  0  0  # atno 10167 bound_to 10162
  156.5413  130.4679  149.6497 H   0  0  0  0  0  0  0  0  0  0  0  0  # atno 10718 bound_to 10713
  154.8066  135.4680  154.0409 H   0  0  0  0  0  0  0  0  0  0  0  0  # atno 10763 bound_to 10752
  153.1873  135.6850  153.8406 H   0  0  0  0  0  0  0  0  0  0  0  0  # atno 10764 bound_to 10752
  153.7936  135.3240  155.3359 H   0  0  0  0  0  0  0  0  0  0  0  0  # atno 10765 bound_to 10752
  141.0408  133.9838  157.2997 H   0  0  0  0  0  0  0  0  0  0  0  0  # atno 11005 bound_to 11000
  145.9187  140.9130  143.0416 LP  0  0  0  0  0  0  0  0  0  0  0  0  # atno 17320 bound_to 7965
  144.6726  140.1259  143.7447 LP  0  0  0  0  0  0  0  0  0  0  0  0  # atno 17321 bound_to 7965
  139.5045  144.6777  151.6087 LP  0  0  0  0  0  0  0  0  0  0  0  0  # atno 17342 bound_to 10162
  140.6038  143.9562  150.6404 LP  0  0  0  0  0  0  0  0  0  0  0  0  # atno 17343 bound_to 10162
  156.2969  130.7155  151.2018 LP  0  0  0  0  0  0  0  0  0  0  0  0  # atno 17370 bound_to 10713
  157.7405  131.0516  150.5163 LP  0  0  0  0  0  0  0  0  0  0  0  0  # atno 17371 bound_to 10713
  139.9274  135.0201  156.8283 LP  0  0  0  0  0  0  0  0  0  0  0  0  # atno 17394 bound_to 11000
  140.6238  133.9969  155.7630 LP  0  0  0  0  0  0  0  0  0  0  0  0  # atno 17395 bound_to 11000

$$$$
