AV-unprocessed.smi:109|AV-procd|sdf|1040|dock5
  -GOLD-   2262018 63D 1   1.00000     0.00000
 Structure written by MMmdl.
 58 61  0  0  0  0  0  0  0  0  1 V2000
  150.4676  140.1490  153.9322 O   0  0  0  0  0  0  0  0  0  0  0  0
  150.4573  139.2247  154.9983 C   0  0  0  0  0  0  0  0  0  0  0  0
  151.0925  139.8580  156.2465 C   0  0  0  0  0  0  0  0  0  0  0  0
  150.7524  141.3545  156.4007 C   0  0  1  0  0  0  0  0  0  0  0  0
  149.3255  141.5179  156.6847 N   0  0  0  0  0  0  0  0  0  0  0  0
  148.3684  141.2576  155.7666 C   0  0  0  0  0  0  0  0  0  0  0  0
  148.1297  142.0985  154.7261 N   0  0  0  0  0  0  0  0  0  0  0  0
  147.1777  141.8084  153.8338 C   0  0  0  0  0  0  0  0  0  0  0  0
  146.3660  140.7491  153.7931 N   0  0  0  0  0  0  0  0  0  0  0  0
  146.6034  139.9030  154.8368 C   0  0  0  0  0  0  0  0  0  0  0  0
  147.5773  140.0837  155.8572 C   0  0  0  0  0  0  0  0  0  0  0  0
  147.5312  139.0164  156.7451 N   0  0  0  0  0  0  0  0  0  0  0  0
  146.5877  138.2489  156.2680 C   0  0  0  0  0  0  0  0  0  0  0  0
  145.9786  138.7095  155.1196 N   0  0  0  0  0  0  0  0  0  0  0  0
  144.8901  138.0834  154.3110 C   0  0  2  0  0  0  0  0  0  0  0  0
  144.5338  136.8857  154.9352 O   0  0  0  0  0  0  0  0  0  0  0  0
  144.6374  135.7920  154.0287 C   0  0  2  0  0  0  0  0  0  0  0  0
  144.9661  134.4853  154.7721 C   0  0  0  0  0  0  0  0  0  0  0  0
  143.9202  134.1577  155.6613 O   0  0  0  0  0  0  0  0  0  0  0  0
  145.6783  136.2492  152.9981 C   0  0  2  0  0  0  0  0  0  0  0  0
  146.9993  135.9948  153.4427 O   0  0  0  0  0  0  0  0  0  0  0  0
  145.4258  137.7464  152.9106 C   0  0  1  0  0  0  0  0  0  0  0  0
  144.4686  138.0405  151.9132 O   0  0  0  0  0  0  0  0  0  0  0  0
  151.6333  142.0570  157.4675 C   0  0  0  0  0  0  0  0  0  0  0  0
  151.4712  141.4791  158.8936 C   0  0  0  0  0  0  0  0  0  0  0  0
  152.4064  142.1746  159.8967 C   0  0  0  0  0  0  0  0  0  0  0  0
  152.1966  143.6962  159.8968 C   0  0  0  0  0  0  0  0  0  0  0  0
  152.3665  144.2777  158.4853 C   0  0  0  0  0  0  0  0  0  0  0  0
  151.4271  143.5874  157.4836 C   0  0  0  0  0  0  0  0  0  0  0  0
  144.0777  138.8116  154.3268 H   0  0  0  0  0  0  0  0  0  0  0  0
  143.6810  135.6959  153.5110 H   0  0  0  0  0  0  0  0  0  0  0  0
  145.5475  135.7477  152.0383 H   0  0  0  0  0  0  0  0  0  0  0  0
  146.3302  138.3131  152.6816 H   0  0  0  0  0  0  0  0  0  0  0  0
  150.2401  139.6914  153.1370 H   0  0  0  0  0  0  0  0  0  0  0  0
  149.4283  138.9248  155.1988 H   0  0  0  0  0  0  0  0  0  0  0  0
  151.0035  138.3319  154.6928 H   0  0  0  0  0  0  0  0  0  0  0  0
  150.7785  139.3061  157.1331 H   0  0  0  0  0  0  0  0  0  0  0  0
  152.1748  139.7399  156.1803 H   0  0  0  0  0  0  0  0  0  0  0  0
  151.0005  141.8082  155.4413 H   0  0  0  0  0  0  0  0  0  0  0  0
  149.1058  141.8301  157.6198 H   0  0  0  0  0  0  0  0  0  0  0  0
  147.0500  142.5273  153.0379 H   0  0  0  0  0  0  0  0  0  0  0  0
  146.3162  137.3169  156.7418 H   0  0  0  0  0  0  0  0  0  0  0  0
  145.0586  133.6625  154.0629 H   0  0  0  0  0  0  0  0  0  0  0  0
  145.9111  134.5607  155.3110 H   0  0  0  0  0  0  0  0  0  0  0  0
  143.2523  133.6914  155.1822 H   0  0  0  0  0  0  0  0  0  0  0  0
  147.6031  136.3198  152.7925 H   0  0  0  0  0  0  0  0  0  0  0  0
  144.2704  138.9639  151.9522 H   0  0  0  0  0  0  0  0  0  0  0  0
  152.6709  141.8931  157.1720 H   0  0  0  0  0  0  0  0  0  0  0  0
  150.4397  141.5921  159.2296 H   0  0  0  0  0  0  0  0  0  0  0  0
  151.6820  140.4101  158.8993 H   0  0  0  0  0  0  0  0  0  0  0  0
  152.2382  141.7765  160.8979 H   0  0  0  0  0  0  0  0  0  0  0  0
  153.4436  141.9493  159.6450 H   0  0  0  0  0  0  0  0  0  0  0  0
  151.1983  143.9279  160.2703 H   0  0  0  0  0  0  0  0  0  0  0  0
  152.9014  144.1694  160.5810 H   0  0  0  0  0  0  0  0  0  0  0  0
  152.1697  145.3499  158.4993 H   0  0  0  0  0  0  0  0  0  0  0  0
  153.4009  144.1569  158.1613 H   0  0  0  0  0  0  0  0  0  0  0  0
  151.5951  143.9972  156.4871 H   0  0  0  0  0  0  0  0  0  0  0  0
  150.3952  143.8242  157.7449 H   0  0  0  0  0  0  0  0  0  0  0  0
  1  2  1  0  0  0  0
  1 34  1  0  0  0  0
  2  3  1  0  0  0  0
  2 35  1  0  0  0  0
  2 36  1  0  0  0  0
  3  4  1  0  0  0  0
  3 37  1  0  0  0  0
  3 38  1  0  0  0  0
  4  5  1  0  0  0  0
  4 24  1  0  0  0  0
  4 39  1  0  0  0  0
  5  6  1  0  0  0  0
  5 40  1  0  0  0  0
  6 11  1  0  0  0  0
  6  7  2  0  0  0  0
  7  8  1  0  0  0  0
  8  9  2  0  0  0  0
  8 41  1  0  0  0  0
  9 10  1  0  0  0  0
 10 14  1  0  0  0  0
 10 11  2  0  0  0  0
 11 12  1  0  0  0  0
 12 13  2  0  0  0  0
 13 14  1  0  0  0  0
 13 42  1  0  0  0  0
 14 15  1  0  0  0  0
 15 30  1  0  0  0  0
 15 22  1  0  0  0  0
 15 16  1  0  0  0  0
 16 17  1  0  0  0  0
 17 31  1  0  0  0  0
 17 18  1  0  0  0  0
 17 20  1  0  0  0  0
 18 19  1  0  0  0  0
 18 43  1  0  0  0  0
 18 44  1  0  0  0  0
 19 45  1  0  0  0  0
 20 32  1  0  0  0  0
 20 21  1  0  0  0  0
 20 22  1  0  0  0  0
 21 46  1  0  0  0  0
 22 33  1  0  0  0  0
 22 23  1  0  0  0  0
 23 47  1  0  0  0  0
 24 29  1  0  0  0  0
 24 25  1  0  0  0  0
 24 48  1  0  0  0  0
 25 26  1  0  0  0  0
 25 49  1  0  0  0  0
 25 50  1  0  0  0  0
 26 27  1  0  0  0  0
 26 51  1  0  0  0  0
 26 52  1  0  0  0  0
 27 28  1  0  0  0  0
 27 53  1  0  0  0  0
 27 54  1  0  0  0  0
 28 29  1  0  0  0  0
 28 55  1  0  0  0  0
 28 56  1  0  0  0  0
 29 57  1  0  0  0  0
 29 58  1  0  0  0  0
M  END
> <s_m_source_file>
AV-unprocessed.smi

> <i_m_source_file_index>
109

> <i_lp_mmshare_version>
43012

> <i_f3d_flags>
0

> <s_epik_input>
W0NIMl0xW0NIMl1bQ0gyXVtDSDJdW0NIMl1bQ0hdMVtDQEhdKFtDSDJdW0NIMl1bT0hdKVtOSF1jKG5bY0hdbjIpYyhjMjMpbltjSF1uM1tDQEBIXTRPW0NASF0oW0NIMl1bT0hdKVtDQEBIXShbT0hdKVtDQEhdNFtPSF0=

> <s_epik_cmdline>
J2VwaWtfcHl0aG9uJywgJy1waCcsICc3LjAnLCAnLXRuJywgJzgnLCAnLW1hJywgJzIwMCcsICctbWV0YWxfYmluZGluZycsICctaW1hZScsICc8aW5maWxlLm1hZT4nLCAnLW9tYWUnLCAnPG91dGZpbGUubWFlPic=

> <r_lp_tautomer_probability>
1

> <r_epik_Ionization_Penalty>
0.000793976

> <r_epik_Ionization_Penalty_Charging>
0

> <r_epik_Ionization_Penalty_Neutral>
0.000793976

> <r_epik_State_Penalty>
-0

> <r_epik_Charging_Adjusted_Penalty>
0

> <i_epik_Tot_Q>
0

> <i_epik_Tot_abs_Q>
0

> <r_epik_Metal_State_Penalty>
-0

> <b_epik_Metal_Only>
0

> <s_epik_Chemistry_Notes>
This compound contains an acetal/aminal-like group ( X-CH(R)-Y where X, Y are N, S, or O) that may be acid/base labile, releasing an aldehyde.

> <s_lp_Force_Field>
OPLS_2005

> <r_lp_Energy>
47.8615

> <b_lp_Chiralities_Consistent>
1

> <s_lp_Variant>
AV-unprocessed.smi:109-10

> <Gold.Version>
5.8.1

> <Gold.Id.Protein>
6NUR|6NUR_protein|mol2

> <Gold.PLP.Fitness>
50.8373

> <Gold.PLP.PLP>
-38.3937

> <Gold.PLP.part.hbond>
-5.6208

> <Gold.PLP.part.metal>
0.0000

> <Gold.PLP.part.buried>
-6.4313

> <Gold.PLP.part.nonpolar>
-29.3163

> <Gold.PLP.part.repulsive>
2.3216

> <Gold.PLP.ligand.clash>
0.0000

> <Gold.PLP.ligand.torsion>
1.0373

> <Gold.PLP.Chemscore.Hbond>
4.7763

> <Gold.PLP.Chemscore.CHOScore>
0.0000

> <Gold.PLP.Chemscore.Metal>
0.0000

> <Gold.Chemscore.Hbonds>
donor molecule, donor type, donor heavy atom, donor atom, acceptor molecule, acceptor atom, score
      L1  H     1    34       P1  7957  0.70
      L1  H    19    45       P1 10957  0.75
      L1  H    21    46       P1  7948  1.00
      L1  H    23    47       P1 10175  1.00
      P1  H  7989  7998       L1     1  0.69

> <Gold.PLP.Chemscore.Internal.Correction>
0.1892

> <Gold.Rescore>
     Score         DG    S(hbond)    S(metal)    S(lipo)     H(rot)  DE(clash)    DE(int)     intcor
     12.60     -14.86       3.85        0.00      89.95       5.47       0.42       1.84       ----

> <Gold.Chemscore.Fitness>
12.6001

> <Gold.Chemscore.DG>
-14.8575

> <Gold.Chemscore.ZeroCoef>
-5.4800

> <Gold.Chemscore.Hbond>
3.8463

> <Gold.Chemscore.Metal>
0.0000

> <Gold.Chemscore.Lipo>
89.9529

> <Gold.Chemscore.Internal_Hbond>
0.0000

> <Gold.Chemscore.DEClash>
0.4192

> <Gold.Chemscore.DEInternal>
1.8382

> <Gold.Chemscore.Rot>
5.4662

> <Gold.Chemscore.Internal.Correction>
   9.000000E+99

> <Gold.Chemscore.Hbonds>
donor molecule, donor type, donor heavy atom, donor atom, acceptor molecule, acceptor atom, score
      L1  H     1    34       P1  7957  0.68
      L1  H    19    45       P1 10957  0.73
      L1  H    21    46       P1  7948  0.97
      L1  H    23    47       P1 10175  1.00
      P1  H  7989  7998       L1     1  0.15

> <Gold.Chemscore.Hbond.Weighted>
-12.8465

> <Gold.Chemscore.Metal.Weighted>
-0.0000

> <Gold.Chemscore.Lipo.Weighted>
-10.5245

> <Gold.Chemscore.Internal_Hbond.Weighted>
0.0000

> <Gold.Chemscore.DEClash.Weighted>
0.4192

> <Gold.Chemscore.DEInternal.Weighted>
1.8382

> <Gold.Chemscore.Rot.Weighted>
13.9935

> <Gold.Chemscore.Internal.Correction.Weighted>
   9.000000E+99

> <Gold.Protein.RotatedTorsions>
[ 6907 6896 6895 6894 ] final   61.20 input  -60.11 | X-H torsion
[ 7974 7965 7964 7962 ] final   43.11 input  175.53 | X-H torsion
[ 8008 7997 7996 7995 ] final  110.18 input   59.86 | X-H torsion
[ 10167 10162 10161 10158 ] final   -6.42 input  -65.29 | X-H torsion
[ 10718 10713 10712 10709 ] final   27.28 input   66.30 | X-H torsion
[ 10763 10752 10751 10750 ] final -111.01 input  -60.55 | X-H torsion
[ 11005 11000 10999 10996 ] final  -81.27 input  -57.11 | X-H torsion

> <Gold.Protein.ActiveResidues>
 VAL166  LYS551  ARG553  GLY616  TRP617  ASP618  TYR619  PRO620  LYS621  CYS622 
 ASP623  PHE694  ASN695  SER759  ASP760  ASP761  ALA762  ILE779  LEU786  VAL792 
 PHE793  MET794  SER795  GLU796  ALA797  LYS798  CYS799  TRP800  GLU811  SER814 

> <Gold.Protein.RotatedAtoms>
  152.4069  134.6192  160.0046 H   0  0  0  0  0  0  0  0  0  0  0  0  # atno 6907 bound_to 6896
  151.6381  133.3322  159.3132 H   0  0  0  0  0  0  0  0  0  0  0  0  # atno 6908 bound_to 6896
  150.7963  134.7066  159.6624 H   0  0  0  0  0  0  0  0  0  0  0  0  # atno 6909 bound_to 6896
  146.0683  139.5224  142.9614 H   0  0  0  0  0  0  0  0  0  0  0  0  # atno 7974 bound_to 7965
  156.2034  140.3043  155.9575 H   0  0  0  0  0  0  0  0  0  0  0  0  # atno 8008 bound_to 7997
  155.2900  140.0441  157.3039 H   0  0  0  0  0  0  0  0  0  0  0  0  # atno 8009 bound_to 7997
  154.5601  140.2317  155.8358 H   0  0  0  0  0  0  0  0  0  0  0  0  # atno 8010 bound_to 7997
  140.6996  143.6196  150.8625 H   0  0  0  0  0  0  0  0  0  0  0  0  # atno 10167 bound_to 10162
  157.2180  130.6965  149.6257 H   0  0  0  0  0  0  0  0  0  0  0  0  # atno 10718 bound_to 10713
  154.8278  135.4543  154.0972 H   0  0  0  0  0  0  0  0  0  0  0  0  # atno 10763 bound_to 10752
  153.2272  135.6901  153.7938 H   0  0  0  0  0  0  0  0  0  0  0  0  # atno 10764 bound_to 10752
  153.7334  135.3323  155.3266 H   0  0  0  0  0  0  0  0  0  0  0  0  # atno 10765 bound_to 10752
  141.1667  133.7189  156.8397 H   0  0  0  0  0  0  0  0  0  0  0  0  # atno 11005 bound_to 11000
  145.6437  141.0279  143.1798 LP  0  0  0  0  0  0  0  0  0  0  0  0  # atno 17320 bound_to 7965
  144.7216  139.8011  143.7380 LP  0  0  0  0  0  0  0  0  0  0  0  0  # atno 17321 bound_to 7965
  139.9917  143.5839  152.2907 LP  0  0  0  0  0  0  0  0  0  0  0  0  # atno 17342 bound_to 10162
  139.6497  144.7660  151.2172 LP  0  0  0  0  0  0  0  0  0  0  0  0  # atno 17343 bound_to 10162
  155.9684  130.4529  150.5791 LP  0  0  0  0  0  0  0  0  0  0  0  0  # atno 17370 bound_to 10713
  157.3604  131.0749  151.1641 LP  0  0  0  0  0  0  0  0  0  0  0  0  # atno 17371 bound_to 10713
  140.1992  134.8909  157.3149 LP  0  0  0  0  0  0  0  0  0  0  0  0  # atno 17394 bound_to 11000
  140.2206  134.4028  155.7568 LP  0  0  0  0  0  0  0  0  0  0  0  0  # atno 17395 bound_to 11000

$$$$
