AV-unprocessed.smi:926|AV-procd|sdf|4184|dock4
  -GOLD-   22720 2 93D 1   1.00000     0.00000
 Structure written by MMmdl.
 37 39  0  0  0  0  0  0  0  0  1 V2000
  150.4155  140.3830  154.4275 O   0  0  0  0  0  0  0  0  0  0  0  0
  150.9945  139.5516  155.1264 C   0  0  0  0  0  0  0  0  0  0  0  0
  151.6817  138.3525  154.4744 C   0  0  0  0  0  0  0  0  0  0  0  0
  151.2535  137.1144  155.0965 N   0  0  0  0  0  0  0  0  0  0  0  0
  150.1264  136.4114  154.9657 C   0  0  0  0  0  0  0  0  0  0  0  0
  150.1315  135.3331  155.7344 N   0  0  0  0  0  0  0  0  0  0  0  0
  151.3598  135.4053  156.3706 N   0  0  0  0  0  0  0  0  0  0  0  0
  152.0301  136.4603  155.9963 N   0  0  0  0  0  0  0  0  0  0  0  0
  151.0556  139.6216  156.4654 N   0  0  0  0  0  0  0  0  0  0  0  0
  150.4232  140.6530  157.2781 C   0  0  0  0  0  0  0  0  0  0  0  0
  151.0850  142.0240  157.0540 C   0  0  0  0  0  0  0  0  0  0  0  0
  151.0159  142.9372  158.2933 C   0  0  1  0  0  0  0  0  0  0  0  0
  151.9828  142.5222  159.4273 C   0  0  0  0  0  0  0  0  0  0  0  0
  152.7992  143.8029  159.6784 C   0  0  2  0  0  0  0  0  0  0  0  0
  151.8981  144.8713  160.3248 C   0  0  0  0  0  0  0  0  0  0  0  0
  150.9877  145.2970  159.1575 C   0  0  0  0  0  0  0  0  0  0  0  0
  151.4641  144.3893  158.0071 C   0  0  1  0  0  0  0  0  0  0  0  0
  152.9675  144.3419  158.2641 C   0  0  0  0  0  0  0  0  0  0  0  0
  151.4367  138.3132  153.4124 H   0  0  0  0  0  0  0  0  0  0  0  0
  152.7659  138.4464  154.5536 H   0  0  0  0  0  0  0  0  0  0  0  0
  149.3088  136.6900  154.3167 H   0  0  0  0  0  0  0  0  0  0  0  0
  151.5522  138.8930  156.9579 H   0  0  0  0  0  0  0  0  0  0  0  0
  149.3689  140.6999  157.0042 H   0  0  0  0  0  0  0  0  0  0  0  0
  150.4568  140.3703  158.3312 H   0  0  0  0  0  0  0  0  0  0  0  0
  152.1233  141.8900  156.7480 H   0  0  0  0  0  0  0  0  0  0  0  0
  150.5872  142.5204  156.2199 H   0  0  0  0  0  0  0  0  0  0  0  0
  149.9872  142.9397  158.6569 H   0  0  0  0  0  0  0  0  0  0  0  0
  151.4543  142.1859  160.3198 H   0  0  0  0  0  0  0  0  0  0  0  0
  152.6443  141.7140  159.1119 H   0  0  0  0  0  0  0  0  0  0  0  0
  153.7297  143.6287  160.2195 H   0  0  0  0  0  0  0  0  0  0  0  0
  151.3340  144.4781  161.1715 H   0  0  0  0  0  0  0  0  0  0  0  0
  152.4883  145.7174  160.6788 H   0  0  0  0  0  0  0  0  0  0  0  0
  149.9287  145.1669  159.3837 H   0  0  0  0  0  0  0  0  0  0  0  0
  151.1482  146.3476  158.9116 H   0  0  0  0  0  0  0  0  0  0  0  0
  151.1761  144.7569  157.0216 H   0  0  0  0  0  0  0  0  0  0  0  0
  153.4436  145.3235  158.2295 H   0  0  0  0  0  0  0  0  0  0  0  0
  153.5055  143.6623  157.6016 H   0  0  0  0  0  0  0  0  0  0  0  0
  1  2  2  0  0  0  0
  2  3  1  0  0  0  0
  2  9  1  0  0  0  0
  3  4  1  0  0  0  0
  3 19  1  0  0  0  0
  3 20  1  0  0  0  0
  4  8  1  0  0  0  0
  4  5  1  0  0  0  0
  5  6  2  0  0  0  0
  5 21  1  0  0  0  0
  6  7  1  0  0  0  0
  7  8  2  0  0  0  0
  9 10  1  0  0  0  0
  9 22  1  0  0  0  0
 10 11  1  0  0  0  0
 10 23  1  0  0  0  0
 10 24  1  0  0  0  0
 11 12  1  0  0  0  0
 11 25  1  0  0  0  0
 11 26  1  0  0  0  0
 12 17  1  0  0  0  0
 12 13  1  0  0  0  0
 12 27  1  0  0  0  0
 13 14  1  0  0  0  0
 13 28  1  0  0  0  0
 13 29  1  0  0  0  0
 14 18  1  0  0  0  0
 14 15  1  0  0  0  0
 14 30  1  0  0  0  0
 15 16  1  0  0  0  0
 15 31  1  0  0  0  0
 15 32  1  0  0  0  0
 16 17  1  0  0  0  0
 16 33  1  0  0  0  0
 16 34  1  0  0  0  0
 17 18  1  0  0  0  0
 17 35  1  0  0  0  0
 18 36  1  0  0  0  0
 18 37  1  0  0  0  0
M  END
> <s_m_source_file>
AV-unprocessed.smi

> <i_m_source_file_index>
926

> <i_lp_mmshare_version>
43012

> <i_f3d_flags>
0

> <s_epik_input>
bjFubltjSF1uMVtDSDJdQyg9TylbTkhdW0NIMl1bQ0gyXVtDQEhdKFtDSDJdW0NASF0yMylbQ0BIXShbQ0gyXTMpW0NIMl1bQ0gyXTI=

> <s_epik_cmdline>
J2VwaWtfcHl0aG9uJywgJy1waCcsICc3LjAnLCAnLXRuJywgJzgnLCAnLW1hJywgJzIwMCcsICctbWV0YWxfYmluZGluZycsICctaW1hZScsICc8aW5maWxlLm1hZT4nLCAnLW9tYWUnLCAnPG91dGZpbGUubWFlPic=

> <r_lp_tautomer_probability>
1

> <r_epik_Ionization_Penalty>
4.22645e-07

> <r_epik_Ionization_Penalty_Charging>
0

> <r_epik_Ionization_Penalty_Neutral>
4.22645e-07

> <r_epik_State_Penalty>
-0

> <r_epik_Charging_Adjusted_Penalty>
0

> <i_epik_Tot_Q>
0

> <i_epik_Tot_abs_Q>
0

> <r_epik_Metal_State_Penalty>
-0

> <b_epik_Metal_Only>
0

> <s_lp_Force_Field>
OPLS_2005

> <r_lp_Energy>
50.6471

> <b_lp_Chiralities_Consistent>
1

> <s_lp_Variant>
AV-unprocessed.smi:926-2

> <Gold.Version>
5.8.1

> <Gold.Id.Protein>
6NUR|6NUR_protein|mol2

> <Gold.PLP.Fitness>
48.4818

> <Gold.PLP.PLP>
-41.7163

> <Gold.PLP.part.hbond>
-2.4725

> <Gold.PLP.part.metal>
0.0000

> <Gold.PLP.part.buried>
-5.1469

> <Gold.PLP.part.nonpolar>
-34.8064

> <Gold.PLP.part.repulsive>
0.2732

> <Gold.PLP.ligand.clash>
0.0000

> <Gold.PLP.ligand.torsion>
0.5922

> <Gold.PLP.Chemscore.Hbond>
1.6500

> <Gold.PLP.Chemscore.CHOScore>
0.9904

> <Gold.PLP.Chemscore.Metal>
0.0000

> <Gold.Chemscore.Hbonds>
donor molecule, donor type, donor heavy atom, donor atom, acceptor molecule, acceptor atom, score
      P1  H  7989  7998       L1     1  1.00
      P1  H 10752 10763       L1     8  0.60
      L1  C     5    21       P1  7948  0.98

> <Gold.PLP.Chemscore.Internal.Correction>
0.0289

> <Gold.Rescore>
     Score         DG    S(hbond)    S(metal)    S(lipo)     H(rot)  DE(clash)    DE(int)     intcor
     13.90     -14.45       0.99        0.00     104.15       2.54       0.07       0.48       ----

> <Gold.Chemscore.Fitness>
13.9012

> <Gold.Chemscore.DG>
-14.4544

> <Gold.Chemscore.ZeroCoef>
-5.4800

> <Gold.Chemscore.Hbond>
0.9883

> <Gold.Chemscore.Metal>
0.0000

> <Gold.Chemscore.Lipo>
104.1466

> <Gold.Chemscore.Internal_Hbond>
0.0000

> <Gold.Chemscore.DEClash>
0.0735

> <Gold.Chemscore.DEInternal>
0.4798

> <Gold.Chemscore.Rot>
2.5436

> <Gold.Chemscore.Internal.Correction>
   9.000000E+99

> <Gold.Chemscore.Hbonds>
donor molecule, donor type, donor heavy atom, donor atom, acceptor molecule, acceptor atom, score
      P1  H  7989  7998       L1     1  0.28
      P1  H 10752 10763       L1     8  0.01

> <Gold.Chemscore.Hbond.Weighted>
-3.3010

> <Gold.Chemscore.Metal.Weighted>
-0.0000

> <Gold.Chemscore.Lipo.Weighted>
-12.1852

> <Gold.Chemscore.Internal_Hbond.Weighted>
0.0000

> <Gold.Chemscore.DEClash.Weighted>
0.0735

> <Gold.Chemscore.DEInternal.Weighted>
0.4798

> <Gold.Chemscore.Rot.Weighted>
6.5117

> <Gold.Chemscore.Internal.Correction.Weighted>
   9.000000E+99

> <Gold.Protein.RotatedTorsions>
[ 6907 6896 6895 6894 ] final  -36.67 input  -60.11 | X-H torsion
[ 7974 7965 7964 7962 ] final  -80.83 input  175.53 | X-H torsion
[ 8008 7997 7996 7995 ] final   54.43 input   59.86 | X-H torsion
[ 10167 10162 10161 10158 ] final -163.11 input  -65.29 | X-H torsion
[ 10718 10713 10712 10709 ] final  -34.32 input   66.30 | X-H torsion
[ 10763 10752 10751 10750 ] final   81.57 input  -60.55 | X-H torsion
[ 11005 11000 10999 10996 ] final -132.42 input  -57.11 | X-H torsion

> <Gold.Protein.ActiveResidues>
 VAL166  LYS551  ARG553  GLY616  TRP617  ASP618  TYR619  PRO620  LYS621  CYS622 
 ASP623  PHE694  ASN695  SER759  ASP760  ASP761  ALA762  ILE779  LEU786  VAL792 
 PHE793  MET794  SER795  GLU796  ALA797  LYS798  CYS799  TRP800  GLU811  SER814 

> <Gold.Protein.RotatedAtoms>
  151.0243  134.9492  159.8076 H   0  0  0  0  0  0  0  0  0  0  0  0  # atno 6907 bound_to 6896
  152.5332  134.2863  159.9036 H   0  0  0  0  0  0  0  0  0  0  0  0  # atno 6908 bound_to 6896
  151.2871  133.4140  159.2665 H   0  0  0  0  0  0  0  0  0  0  0  0  # atno 6909 bound_to 6896
  145.5548  140.9491  143.1479 H   0  0  0  0  0  0  0  0  0  0  0  0  # atno 7974 bound_to 7965
  155.4846  140.3469  155.4345 H   0  0  0  0  0  0  0  0  0  0  0  0  # atno 8008 bound_to 7997
  156.1017  140.1437  156.9487 H   0  0  0  0  0  0  0  0  0  0  0  0  # atno 8009 bound_to 7997
  154.4698  140.0905  156.7093 H   0  0  0  0  0  0  0  0  0  0  0  0  # atno 8010 bound_to 7997
  139.6344  144.0378  152.2042 H   0  0  0  0  0  0  0  0  0  0  0  0  # atno 10167 bound_to 10162
  156.3520  130.4310  149.7696 H   0  0  0  0  0  0  0  0  0  0  0  0  # atno 10718 bound_to 10713
  153.1128  135.4760  154.9064 H   0  0  0  0  0  0  0  0  0  0  0  0  # atno 10763 bound_to 10752
  154.7498  135.3103  154.8581 H   0  0  0  0  0  0  0  0  0  0  0  0  # atno 10764 bound_to 10752
  153.9166  135.6859  153.4802 H   0  0  0  0  0  0  0  0  0  0  0  0  # atno 10765 bound_to 10752
  140.9171  134.1492  157.4343 H   0  0  0  0  0  0  0  0  0  0  0  0  # atno 11005 bound_to 11000
  144.7512  139.7190  143.7272 LP  0  0  0  0  0  0  0  0  0  0  0  0  # atno 17320 bound_to 7965
  146.1892  139.5123  142.9816 LP  0  0  0  0  0  0  0  0  0  0  0  0  # atno 17321 bound_to 7965
  140.0051  144.6265  150.7695 LP  0  0  0  0  0  0  0  0  0  0  0  0  # atno 17342 bound_to 10162
  140.7457  143.2880  151.3410 LP  0  0  0  0  0  0  0  0  0  0  0  0  # atno 17343 bound_to 10162
  156.4892  130.8077  151.3088 LP  0  0  0  0  0  0  0  0  0  0  0  0  # atno 17370 bound_to 10713
  157.7462  130.9980  150.2839 LP  0  0  0  0  0  0  0  0  0  0  0  0  # atno 17371 bound_to 10713
  139.8768  134.9958  156.5760 LP  0  0  0  0  0  0  0  0  0  0  0  0  # atno 17394 bound_to 11000
  140.8035  133.8486  155.8747 LP  0  0  0  0  0  0  0  0  0  0  0  0  # atno 17395 bound_to 11000

$$$$
