AV-unprocessed.smi:1029|AV-procd|sdf|4475|dock9
  -GOLD-   22720 2453D 1   1.00000     0.00000
 Structure written by MMmdl.
 46 47  0  0  0  0  0  0  0  0  2 V2000
  151.9963  141.1963  159.1030 C   0  0  0  0  0  0  0  0  0  0  0  0
  151.6743  140.6260  157.7534 C   0  0  0  0  0  0  0  0  0  0  0  0
  150.5219  140.8528  156.9500 C   0  0  0  0  0  0  0  0  0  0  0  0
  150.7694  140.0864  155.8422 C   0  0  0  0  0  0  0  0  0  0  0  0
  149.9924  139.9174  154.7406 N   0  0  0  0  0  0  0  0  0  0  0  0
  148.6782  140.1582  154.5893 C   0  0  0  0  0  0  0  0  0  0  0  0
  147.9301  140.6154  155.4538 O   0  0  0  0  0  0  0  0  0  0  0  0
  148.2667  139.8380  153.3539 N   0  0  0  0  0  0  0  0  0  0  0  0
  146.8977  139.9710  152.8670 C   0  0  0  0  0  0  0  0  0  0  0  0
  146.4365  138.7188  152.0933 C   0  0  1  0  0  0  0  0  0  0  0  0
  147.5327  138.2125  151.3562 O   0  0  0  0  0  0  0  0  0  0  0  0
  145.9729  137.6009  153.0502 C   0  0  0  0  0  0  0  0  0  0  0  0
  146.2114  136.2416  152.4988 N   0  3  2  0  0  0  0  0  0  0  0  0
  145.3740  135.9303  151.3098 C   0  0  0  0  0  0  0  0  0  0  0  0
  145.7588  134.5712  150.7015 C   0  0  0  0  0  0  0  0  0  0  0  0
  145.6538  133.4426  151.7409 C   0  0  1  0  0  0  0  0  0  0  0  0
  146.0674  132.0866  151.1518 C   0  0  0  0  0  0  0  0  0  0  0  0
  146.4983  133.8095  152.9725 C   0  0  0  0  0  0  0  0  0  0  0  0
  146.0986  135.1838  153.5355 C   0  0  0  0  0  0  0  0  0  0  0  0
  151.9552  139.4391  155.9477 O   0  0  0  0  0  0  0  0  0  0  0  0
  152.5280  139.7943  157.1744 N   0  0  0  0  0  0  0  0  0  0  0  0
  151.2302  141.9017  159.4252 H   0  0  0  0  0  0  0  0  0  0  0  0
  152.9493  141.7257  159.0891 H   0  0  0  0  0  0  0  0  0  0  0  0
  152.0615  140.4104  159.8560 H   0  0  0  0  0  0  0  0  0  0  0  0
  149.6684  141.4760  157.1692 H   0  0  0  0  0  0  0  0  0  0  0  0
  150.4758  139.5650  153.9278 H   0  0  0  0  0  0  0  0  0  0  0  0
  148.9489  139.4746  152.7043 H   0  0  0  0  0  0  0  0  0  0  0  0
  146.2057  140.2235  153.6729 H   0  0  0  0  0  0  0  0  0  0  0  0
  146.9010  140.8303  152.1956 H   0  0  0  0  0  0  0  0  0  0  0  0
  145.6348  138.9889  151.4064 H   0  0  0  0  0  0  0  0  0  0  0  0
  147.9341  137.5132  151.8498 H   0  0  0  0  0  0  0  0  0  0  0  0
  146.5047  137.7152  153.9964 H   0  0  0  0  0  0  0  0  0  0  0  0
  144.9130  137.7093  153.2851 H   0  0  0  0  0  0  0  0  0  0  0  0
  144.3207  135.9277  151.5947 H   0  0  0  0  0  0  0  0  0  0  0  0
  145.4914  136.7009  150.5487 H   0  0  0  0  0  0  0  0  0  0  0  0
  145.1135  134.3553  149.8493 H   0  0  0  0  0  0  0  0  0  0  0  0
  146.7766  134.6226  150.3115 H   0  0  0  0  0  0  0  0  0  0  0  0
  144.6115  133.3640  152.0539 H   0  0  0  0  0  0  0  0  0  0  0  0
  147.1061  132.0967  150.8200 H   0  0  0  0  0  0  0  0  0  0  0  0
  145.4467  131.8257  150.2943 H   0  0  0  0  0  0  0  0  0  0  0  0
  145.9612  131.2900  151.8888 H   0  0  0  0  0  0  0  0  0  0  0  0
  146.3825  133.0490  153.7456 H   0  0  0  0  0  0  0  0  0  0  0  0
  147.5561  133.8203  152.7061 H   0  0  0  0  0  0  0  0  0  0  0  0
  146.7471  135.4233  154.3792 H   0  0  0  0  0  0  0  0  0  0  0  0
  145.0772  135.1536  153.9184 H   0  0  0  0  0  0  0  0  0  0  0  0
  147.1741  136.2304  152.1920 H   0  0  0  0  0  0  0  0  0  0  0  0
  1  2  1  0  0  0  0
  1 22  1  0  0  0  0
  1 23  1  0  0  0  0
  1 24  1  0  0  0  0
  2 21  2  0  0  0  0
  2  3  1  0  0  0  0
  3  4  2  0  0  0  0
  3 25  1  0  0  0  0
  4  5  1  0  0  0  0
  4 20  1  0  0  0  0
  5  6  1  0  0  0  0
  5 26  1  0  0  0  0
  6  7  2  0  0  0  0
  6  8  1  0  0  0  0
  8  9  1  0  0  0  0
  8 27  1  0  0  0  0
  9 10  1  0  0  0  0
  9 28  1  0  0  0  0
  9 29  1  0  0  0  0
 10 11  1  0  0  0  0
 10 12  1  0  0  0  0
 10 30  1  0  0  0  0
 11 31  1  0  0  0  0
 12 13  1  0  0  0  0
 12 32  1  0  0  0  0
 12 33  1  0  0  0  0
 13 19  1  0  0  0  0
 13 14  1  0  0  0  0
 13 46  1  0  0  0  0
 14 15  1  0  0  0  0
 14 34  1  0  0  0  0
 14 35  1  0  0  0  0
 15 16  1  0  0  0  0
 15 36  1  0  0  0  0
 15 37  1  0  0  0  0
 16 17  1  0  0  0  0
 16 18  1  0  0  0  0
 16 38  1  0  0  0  0
 17 39  1  0  0  0  0
 17 40  1  0  0  0  0
 17 41  1  0  0  0  0
 18 19  1  0  0  0  0
 18 42  1  0  0  0  0
 18 43  1  0  0  0  0
 19 44  1  0  0  0  0
 19 45  1  0  0  0  0
 20 21  1  0  0  0  0
M  CHG  1  13   1
M  END
> <s_m_source_file>
AV-unprocessed.smi

> <i_m_source_file_index>
1029

> <i_lp_mmshare_version>
43012

> <i_f3d_flags>
0

> <s_epik_input>
W0NIM11jMVtjSF1jKG9uMSlbTkhdQyg9TylbTkhdW0NIMl1bQ0BIXShbT0hdKVtDSDJdTjJbQ0gyXVtDSDJdW0NIXShbQ0gzXSlbQ0gyXVtDSDJdMg==

> <s_epik_cmdline>
J2VwaWtfcHl0aG9uJywgJy1waCcsICc3LjAnLCAnLXRuJywgJzgnLCAnLW1hJywgJzIwMCcsICctbWV0YWxfYmluZGluZycsICctaW1hZScsICc8aW5maWxlLm1hZT4nLCAnLW9tYWUnLCAnPG91dGZpbGUubWFlPic=

> <r_lp_tautomer_probability>
1

> <r_epik_Ionization_Penalty>
0.00211787

> <r_epik_Ionization_Penalty_Charging>
0.00153238

> <r_epik_Ionization_Penalty_Neutral>
0.000585488

> <r_epik_State_Penalty>
-0

> <r_epik_Charging_Adjusted_Penalty>
0.00153238

> <i_epik_Tot_Q>
1

> <i_epik_Tot_abs_Q>
1

> <r_epik_Metal_State_Penalty>
-0

> <b_epik_Metal_Only>
0

> <s_lp_Force_Field>
OPLS_2005

> <r_lp_Energy>
20.5913

> <b_lp_Chiralities_Consistent>
1

> <s_lp_Variant>
AV-unprocessed.smi:1029-2

> <Gold.Version>
5.8.1

> <Gold.Id.Protein>
6NUR|6NUR_protein|mol2

> <Gold.PLP.Fitness>
51.2191

> <Gold.PLP.PLP>
-36.2795

> <Gold.PLP.part.hbond>
-5.2589

> <Gold.PLP.part.metal>
0.0000

> <Gold.PLP.part.buried>
-3.6726

> <Gold.PLP.part.nonpolar>
-27.8330

> <Gold.PLP.part.repulsive>
1.1643

> <Gold.PLP.ligand.clash>
0.0000

> <Gold.PLP.ligand.torsion>
0.8425

> <Gold.PLP.Chemscore.Hbond>
5.5180

> <Gold.PLP.Chemscore.CHOScore>
0.0000

> <Gold.PLP.Chemscore.Metal>
0.0000

> <Gold.Chemscore.Hbonds>
donor molecule, donor type, donor heavy atom, donor atom, acceptor molecule, acceptor atom, score
      L1  H     8    27       P1  7957  0.69
      L1  H    11    31       P1  7948  0.91
      L1  H    13    46       P1  7948  2.00
      P1  H  7954  7966       L1    11  0.90
      P1  H  7997  8008       L1    21  1.00

> <Gold.PLP.Chemscore.Internal.Correction>
0.0705

> <Gold.Rescore>
     Score         DG    S(hbond)    S(metal)    S(lipo)     H(rot)  DE(clash)    DE(int)     intcor
     18.08     -20.04       3.70        0.00      72.73       2.46       0.22       1.75       ----

> <Gold.Chemscore.Fitness>
18.0766

> <Gold.Chemscore.DG>
-20.0450

> <Gold.Chemscore.ZeroCoef>
-5.4800

> <Gold.Chemscore.Hbond>
3.7002

> <Gold.Chemscore.Metal>
0.0000

> <Gold.Chemscore.Lipo>
72.7337

> <Gold.Chemscore.Internal_Hbond>
0.0000

> <Gold.Chemscore.DEClash>
0.2166

> <Gold.Chemscore.DEInternal>
1.7517

> <Gold.Chemscore.Rot>
2.4624

> <Gold.Chemscore.Internal.Correction>
   9.000000E+99

> <Gold.Chemscore.Hbonds>
donor molecule, donor type, donor heavy atom, donor atom, acceptor molecule, acceptor atom, score
      L1  H     8    27       P1  7957  0.70
      L1  H    11    31       P1  7948  0.89
      L1  H    13    46       P1  7948  1.00
      P1  H  7954  7966       L1    11  0.18
      P1  H  7997  8008       L1    21  0.34

> <Gold.Chemscore.Hbond.Weighted>
-12.3588

> <Gold.Chemscore.Metal.Weighted>
-0.0000

> <Gold.Chemscore.Lipo.Weighted>
-8.5098

> <Gold.Chemscore.Internal_Hbond.Weighted>
0.0000

> <Gold.Chemscore.DEClash.Weighted>
0.2166

> <Gold.Chemscore.DEInternal.Weighted>
1.7517

> <Gold.Chemscore.Rot.Weighted>
6.3037

> <Gold.Chemscore.Internal.Correction.Weighted>
   9.000000E+99

> <Gold.Protein.RotatedTorsions>
[ 6907 6896 6895 6894 ] final   16.23 input  -60.11 | X-H torsion
[ 7974 7965 7964 7962 ] final   59.30 input  175.53 | X-H torsion
[ 8008 7997 7996 7995 ] final  -63.61 input   59.86 | X-H torsion
[ 10167 10162 10161 10158 ] final    2.01 input  -65.29 | X-H torsion
[ 10718 10713 10712 10709 ] final   15.35 input   66.30 | X-H torsion
[ 10763 10752 10751 10750 ] final  128.49 input  -60.55 | X-H torsion
[ 11005 11000 10999 10996 ] final -152.05 input  -57.11 | X-H torsion

> <Gold.Protein.ActiveResidues>
 VAL166  LYS551  ARG553  GLY616  TRP617  ASP618  TYR619  PRO620  LYS621  CYS622 
 ASP623  PHE694  ASN695  SER759  ASP760  ASP761  ALA762  ILE779  LEU786  VAL792 
 PHE793  MET794  SER795  GLU796  ALA797  LYS798  CYS799  TRP800  GLU811  SER814 

> <Gold.Protein.RotatedAtoms>
  151.8306  135.0622  160.0436 H   0  0  0  0  0  0  0  0  0  0  0  0  # atno 6907 bound_to 6896
  152.2883  133.5532  159.5549 H   0  0  0  0  0  0  0  0  0  0  0  0  # atno 6908 bound_to 6896
  150.7219  134.0381  159.3798 H   0  0  0  0  0  0  0  0  0  0  0  0  # atno 6909 bound_to 6896
  145.9087  139.3637  143.0549 H   0  0  0  0  0  0  0  0  0  0  0  0  # atno 7974 bound_to 7965
  154.4564  140.0971  156.6768 H   0  0  0  0  0  0  0  0  0  0  0  0  # atno 8008 bound_to 7997
  155.5126  140.3477  155.4373 H   0  0  0  0  0  0  0  0  0  0  0  0  # atno 8009 bound_to 7997
  156.0785  140.1367  156.9730 H   0  0  0  0  0  0  0  0  0  0  0  0  # atno 8010 bound_to 7997
  140.6655  143.7190  150.7820 H   0  0  0  0  0  0  0  0  0  0  0  0  # atno 10167 bound_to 10162
  157.0522  130.6274  149.5770 H   0  0  0  0  0  0  0  0  0  0  0  0  # atno 10718 bound_to 10713
  153.7264  135.3245  155.3277 H   0  0  0  0  0  0  0  0  0  0  0  0  # atno 10763 bound_to 10752
  154.8340  135.4511  154.1166 H   0  0  0  0  0  0  0  0  0  0  0  0  # atno 10764 bound_to 10752
  153.2301  135.6959  153.7980 H   0  0  0  0  0  0  0  0  0  0  0  0  # atno 10765 bound_to 10752
  140.7230  134.3706  157.5180 H   0  0  0  0  0  0  0  0  0  0  0  0  # atno 11005 bound_to 11000
  145.8699  140.9426  143.0656 LP  0  0  0  0  0  0  0  0  0  0  0  0  # atno 17320 bound_to 7965
  144.6741  140.0641  143.7475 LP  0  0  0  0  0  0  0  0  0  0  0  0  # atno 17321 bound_to 7965
  140.0866  143.4918  152.2501 LP  0  0  0  0  0  0  0  0  0  0  0  0  # atno 17342 bound_to 10162
  139.5903  144.7547  151.3417 LP  0  0  0  0  0  0  0  0  0  0  0  0  # atno 17343 bound_to 10162
  156.0004  130.5082  150.7641 LP  0  0  0  0  0  0  0  0  0  0  0  0  # atno 17370 bound_to 10713
  157.5021  131.0919  151.0302 LP  0  0  0  0  0  0  0  0  0  0  0  0  # atno 17371 bound_to 10713
  139.8844  134.8967  156.2708 LP  0  0  0  0  0  0  0  0  0  0  0  0  # atno 17394 bound_to 11000
  140.9987  133.7164  156.0926 LP  0  0  0  0  0  0  0  0  0  0  0  0  # atno 17395 bound_to 11000

$$$$
