AV-unprocessed.smi:254|AV-procd|sdf|1947|dock8
  -GOLD-   2262021 83D 1   1.00000     0.00000
 Structure written by MMmdl.
 50 53  0  0  0  0  0  0  0  0  1 V2000
  153.0045  139.6509  157.8701 O   0  0  0  0  0  0  0  0  0  0  0  0
  152.1671  140.3462  157.2977 C   0  0  0  0  0  0  0  0  0  0  0  0
  151.7274  140.1094  155.8665 C   0  0  0  0  0  0  0  0  0  0  0  0
  150.7395  141.1651  155.6531 N   0  0  0  0  0  0  0  0  0  0  0  0
  149.6140  140.7599  155.0244 C   0  0  0  0  0  0  0  0  0  0  0  0
  148.9170  141.6295  154.2464 N   0  0  0  0  0  0  0  0  0  0  0  0
  147.7973  141.2276  153.6370 C   0  0  0  0  0  0  0  0  0  0  0  0
  147.2106  140.0288  153.6738 N   0  0  0  0  0  0  0  0  0  0  0  0
  147.9065  139.1595  154.4622 C   0  0  0  0  0  0  0  0  0  0  0  0
  149.1072  139.4428  155.1699 C   0  0  0  0  0  0  0  0  0  0  0  0
  149.5287  138.3185  155.8676 N   0  0  0  0  0  0  0  0  0  0  0  0
  148.6286  137.4165  155.5843 C   0  0  0  0  0  0  0  0  0  0  0  0
  147.6096  137.8406  154.7596 N   0  0  0  0  0  0  0  0  0  0  0  0
  146.4940  137.0455  154.2771 C   0  0  0  0  0  0  0  0  0  0  0  0
  146.5083  136.7692  152.7509 C   0  0  2  0  0  0  0  0  0  0  0  0
  146.1623  138.0926  152.0252 C   0  0  0  0  0  0  0  0  0  0  0  0
  147.1732  138.4793  151.1176 O   0  0  0  0  0  0  0  0  0  0  0  0
  145.5578  135.6036  152.3365 C   0  0  1  0  0  0  0  0  0  0  0  0
  145.3651  135.4156  150.8396 C   0  0  0  0  0  0  0  0  0  0  0  0
  144.7954  134.0075  150.7604 C   0  0  0  0  0  0  0  0  0  0  0  0
  145.5070  133.2860  151.7531 O   0  0  0  0  0  0  0  0  0  0  0  0
  146.0125  134.1887  152.7328 C   0  0  0  0  0  0  0  0  0  0  0  0
  150.5653  141.9592  156.8708 C   0  0  0  0  0  0  0  0  0  0  0  0
  151.5124  141.3885  157.8131 N   0  0  0  0  0  0  0  0  0  0  0  0
  151.6377  141.9189  159.1691 C   0  0  0  0  0  0  0  0  0  0  0  0
  152.6958  143.0321  159.2694 C   0  0  0  0  0  0  0  0  0  0  0  0
  152.5720  143.6416  160.4477 F   0  0  0  0  0  0  0  0  0  0  0  0
  153.9293  142.5355  159.1786 F   0  0  0  0  0  0  0  0  0  0  0  0
  152.5137  143.9332  158.3040 F   0  0  0  0  0  0  0  0  0  0  0  0
  152.5676  140.2284  155.1822 H   0  0  0  0  0  0  0  0  0  0  0  0
  151.3199  139.1027  155.7553 H   0  0  0  0  0  0  0  0  0  0  0  0
  147.2996  141.9733  153.0348 H   0  0  0  0  0  0  0  0  0  0  0  0
  148.6793  136.4114  155.9774 H   0  0  0  0  0  0  0  0  0  0  0  0
  146.4640  136.1035  154.8259 H   0  0  0  0  0  0  0  0  0  0  0  0
  145.5874  137.5854  154.5527 H   0  0  0  0  0  0  0  0  0  0  0  0
  147.5293  136.5029  152.4733 H   0  0  0  0  0  0  0  0  0  0  0  0
  145.2077  138.0139  151.5042 H   0  0  0  0  0  0  0  0  0  0  0  0
  146.0626  138.9118  152.7377 H   0  0  0  0  0  0  0  0  0  0  0  0
  147.7904  137.7686  151.0341 H   0  0  0  0  0  0  0  0  0  0  0  0
  144.5739  135.7806  152.7744 H   0  0  0  0  0  0  0  0  0  0  0  0
  144.6993  136.1552  150.3945 H   0  0  0  0  0  0  0  0  0  0  0  0
  146.3239  135.4564  150.3208 H   0  0  0  0  0  0  0  0  0  0  0  0
  143.7343  134.0081  151.0132 H   0  0  0  0  0  0  0  0  0  0  0  0
  144.9130  133.5584  149.7741 H   0  0  0  0  0  0  0  0  0  0  0  0
  147.0998  134.1077  152.7337 H   0  0  0  0  0  0  0  0  0  0  0  0
  145.6492  133.9031  153.7191 H   0  0  0  0  0  0  0  0  0  0  0  0
  150.8152  143.0014  156.6691 H   0  0  0  0  0  0  0  0  0  0  0  0
  149.5540  141.9249  157.2791 H   0  0  0  0  0  0  0  0  0  0  0  0
  150.6692  142.3052  159.4895 H   0  0  0  0  0  0  0  0  0  0  0  0
  151.8824  141.1076  159.8564 H   0  0  0  0  0  0  0  0  0  0  0  0
  1  2  2  0  0  0  0
  2 24  1  0  0  0  0
  2  3  1  0  0  0  0
  3  4  1  0  0  0  0
  3 30  1  0  0  0  0
  3 31  1  0  0  0  0
  4  5  1  0  0  0  0
  4 23  1  0  0  0  0
  5 10  1  0  0  0  0
  5  6  2  0  0  0  0
  6  7  1  0  0  0  0
  7  8  2  0  0  0  0
  7 32  1  0  0  0  0
  8  9  1  0  0  0  0
  9 13  1  0  0  0  0
  9 10  2  0  0  0  0
 10 11  1  0  0  0  0
 11 12  2  0  0  0  0
 12 13  1  0  0  0  0
 12 33  1  0  0  0  0
 13 14  1  0  0  0  0
 14 15  1  0  0  0  0
 14 34  1  0  0  0  0
 14 35  1  0  0  0  0
 15 16  1  0  0  0  0
 15 18  1  0  0  0  0
 15 36  1  0  0  0  0
 16 17  1  0  0  0  0
 16 37  1  0  0  0  0
 16 38  1  0  0  0  0
 17 39  1  0  0  0  0
 18 22  1  0  0  0  0
 18 19  1  0  0  0  0
 18 40  1  0  0  0  0
 19 20  1  0  0  0  0
 19 41  1  0  0  0  0
 19 42  1  0  0  0  0
 20 21  1  0  0  0  0
 20 43  1  0  0  0  0
 20 44  1  0  0  0  0
 21 22  1  0  0  0  0
 22 45  1  0  0  0  0
 22 46  1  0  0  0  0
 23 24  1  0  0  0  0
 23 47  1  0  0  0  0
 23 48  1  0  0  0  0
 24 25  1  0  0  0  0
 25 26  1  0  0  0  0
 25 49  1  0  0  0  0
 25 50  1  0  0  0  0
 26 27  1  0  0  0  0
 26 28  1  0  0  0  0
 26 29  1  0  0  0  0
M  END
> <s_m_source_file>
AV-unprocessed.smi

> <i_m_source_file_index>
254

> <i_lp_mmshare_version>
43012

> <i_f3d_flags>
0

> <s_epik_input>
RkMoRikoRilbQ0gyXU4xW0NIMl1OKFtDSDJdQzE9TyljKG5bY0hdbjIpYyhjMjMpbltjSF1uM1tDSDJdW0NASF0oW0NIMl1bT0hdKVtDQEBIXTRbQ0gyXVtDSDJdT1tDSDJdNA==

> <s_epik_cmdline>
J2VwaWtfcHl0aG9uJywgJy1waCcsICc3LjAnLCAnLXRuJywgJzgnLCAnLW1hJywgJzIwMCcsICctbWV0YWxfYmluZGluZycsICctaW1hZScsICc8aW5maWxlLm1hZT4nLCAnLW9tYWUnLCAnPG91dGZpbGUubWFlPic=

> <r_lp_tautomer_probability>
1

> <r_epik_Ionization_Penalty>
0.000292924

> <r_epik_Ionization_Penalty_Charging>
0

> <r_epik_Ionization_Penalty_Neutral>
0.000292924

> <r_epik_State_Penalty>
-0

> <r_epik_Charging_Adjusted_Penalty>
0

> <i_epik_Tot_Q>
0

> <i_epik_Tot_abs_Q>
0

> <r_epik_Metal_State_Penalty>
-0

> <b_epik_Metal_Only>
0

> <s_epik_Chemistry_Notes>
This compound contains an acetal/aminal-like group ( X-CH(R)-Y where X, Y are N, S, or O) that may be acid/base labile, releasing an aldehyde.

> <s_lp_Force_Field>
OPLS_2005

> <r_lp_Energy>
43.3232

> <b_lp_Chiralities_Consistent>
1

> <s_lp_Variant>
AV-unprocessed.smi:254-3

> <Gold.Version>
5.8.1

> <Gold.Id.Protein>
6NUR|6NUR_protein|mol2

> <Gold.PLP.Fitness>
51.2150

> <Gold.PLP.PLP>
-48.3305

> <Gold.PLP.part.hbond>
-5.7735

> <Gold.PLP.part.metal>
0.0000

> <Gold.PLP.part.buried>
-1.6365

> <Gold.PLP.part.nonpolar>
-40.3731

> <Gold.PLP.part.repulsive>
0.5461

> <Gold.PLP.ligand.clash>
0.0000

> <Gold.PLP.ligand.torsion>
2.1278

> <Gold.PLP.Chemscore.Hbond>
2.2070

> <Gold.PLP.Chemscore.CHOScore>
0.0000

> <Gold.PLP.Chemscore.Metal>
0.0000

> <Gold.Chemscore.Hbonds>
donor molecule, donor type, donor heavy atom, donor atom, acceptor molecule, acceptor atom, score
      L1  H    17    39       P1  7948  0.98
      P1  H  7997  8009       L1     1  1.00
      P1  H  8011  8017       L1     6  0.17

> <Gold.PLP.Chemscore.Internal.Correction>
0.5191

> <Gold.Rescore>
     Score         DG    S(hbond)    S(metal)    S(lipo)     H(rot)  DE(clash)    DE(int)     intcor
      2.85      -9.82       1.96        0.00      64.05       3.78       2.21       4.76       ----

> <Gold.Chemscore.Fitness>
2.8486

> <Gold.Chemscore.DG>
-9.8249

> <Gold.Chemscore.ZeroCoef>
-5.4800

> <Gold.Chemscore.Hbond>
1.9577

> <Gold.Chemscore.Metal>
0.0000

> <Gold.Chemscore.Lipo>
64.0456

> <Gold.Chemscore.Internal_Hbond>
0.0000

> <Gold.Chemscore.DEClash>
2.2122

> <Gold.Chemscore.DEInternal>
4.7641

> <Gold.Chemscore.Rot>
3.7840

> <Gold.Chemscore.Internal.Correction>
   9.000000E+99

> <Gold.Chemscore.Hbonds>
donor molecule, donor type, donor heavy atom, donor atom, acceptor molecule, acceptor atom, score
      L1  H    17    39       P1  7948  0.87
      P1  H  7997  8009       L1     1  0.50
      P1  H  8011  8017       L1     6  0.01

> <Gold.Chemscore.Hbond.Weighted>
-6.5386

> <Gold.Chemscore.Metal.Weighted>
-0.0000

> <Gold.Chemscore.Lipo.Weighted>
-7.4933

> <Gold.Chemscore.Internal_Hbond.Weighted>
0.0000

> <Gold.Chemscore.DEClash.Weighted>
2.2122

> <Gold.Chemscore.DEInternal.Weighted>
4.7641

> <Gold.Chemscore.Rot.Weighted>
9.6871

> <Gold.Chemscore.Internal.Correction.Weighted>
   9.000000E+99

> <Gold.Protein.RotatedTorsions>
[ 6907 6896 6895 6894 ] final   50.92 input  -60.11 | X-H torsion
[ 7974 7965 7964 7962 ] final  107.53 input  175.53 | X-H torsion
[ 8008 7997 7996 7995 ] final  154.17 input   59.86 | X-H torsion
[ 10167 10162 10161 10158 ] final    3.84 input  -65.29 | X-H torsion
[ 10718 10713 10712 10709 ] final   35.61 input   66.30 | X-H torsion
[ 10763 10752 10751 10750 ] final  117.79 input  -60.55 | X-H torsion
[ 11005 11000 10999 10996 ] final  166.78 input  -57.11 | X-H torsion

> <Gold.Protein.ActiveResidues>
 VAL166  LYS551  ARG553  GLY616  TRP617  ASP618  TYR619  PRO620  LYS621  CYS622 
 ASP623  PHE694  ASN695  SER759  ASP760  ASP761  ALA762  ILE779  LEU786  VAL792 
 PHE793  MET794  SER795  GLU796  ALA797  LYS798  CYS799  TRP800  GLU811  SER814 

> <Gold.Protein.RotatedAtoms>
  152.3070  134.7543  160.0344 H   0  0  0  0  0  0  0  0  0  0  0  0  # atno 6907 bound_to 6896
  151.8036  133.3368  159.3542 H   0  0  0  0  0  0  0  0  0  0  0  0  # atno 6908 bound_to 6896
  150.7301  134.5660  159.5910 H   0  0  0  0  0  0  0  0  0  0  0  0  # atno 6909 bound_to 6896
  145.2924  139.2596  143.3857 H   0  0  0  0  0  0  0  0  0  0  0  0  # atno 7974 bound_to 7965
  156.2545  140.1974  156.6605 H   0  0  0  0  0  0  0  0  0  0  0  0  # atno 8008 bound_to 7997
  154.6468  140.0577  156.9935 H   0  0  0  0  0  0  0  0  0  0  0  0  # atno 8009 bound_to 7997
  155.1478  140.3248  155.4440 H   0  0  0  0  0  0  0  0  0  0  0  0  # atno 8010 bound_to 7997
  140.6565  143.7413  150.7663 H   0  0  0  0  0  0  0  0  0  0  0  0  # atno 10167 bound_to 10162
  157.3248  130.7467  149.6808 H   0  0  0  0  0  0  0  0  0  0  0  0  # atno 10718 bound_to 10713
  153.5577  135.3527  155.2786 H   0  0  0  0  0  0  0  0  0  0  0  0  # atno 10763 bound_to 10752
  154.8699  135.4129  154.2866 H   0  0  0  0  0  0  0  0  0  0  0  0  # atno 10764 bound_to 10752
  153.3605  135.7059  153.6785 H   0  0  0  0  0  0  0  0  0  0  0  0  # atno 10765 bound_to 10752
  140.2700  134.7834  157.3667 H   0  0  0  0  0  0  0  0  0  0  0  0  # atno 11005 bound_to 11000
  146.3180  140.3419  142.8648 LP  0  0  0  0  0  0  0  0  0  0  0  0  # atno 17320 bound_to 7965
  144.9161  140.7814  143.5777 LP  0  0  0  0  0  0  0  0  0  0  0  0  # atno 17321 bound_to 7965
  140.1074  143.4731  152.2390 LP  0  0  0  0  0  0  0  0  0  0  0  0  # atno 17342 bound_to 10162
  139.5789  144.7501  151.3691 LP  0  0  0  0  0  0  0  0  0  0  0  0  # atno 17343 bound_to 10162
  155.9689  130.4212  150.4461 LP  0  0  0  0  0  0  0  0  0  0  0  0  # atno 17370 bound_to 10713
  157.2482  131.0540  151.2395 LP  0  0  0  0  0  0  0  0  0  0  0  0  # atno 17371 bound_to 10713
  140.1382  134.5006  155.8052 LP  0  0  0  0  0  0  0  0  0  0  0  0  # atno 17394 bound_to 11000
  141.2179  133.6815  156.7163 LP  0  0  0  0  0  0  0  0  0  0  0  0  # atno 17395 bound_to 11000

$$$$
