AV-unprocessed.smi:862|AV-procd|sdf|3981|dock7
  -GOLD-   22720 1463D 1   1.00000     0.00000
 Structure written by MMmdl.
 45 47  0  0  0  0  0  0  0  0  3 V2000
  148.9565  130.9359  157.1261 N   0  0  0  0  0  0  0  0  0  0  0  0
  149.9950  131.7591  157.3003 C   0  0  0  0  0  0  0  0  0  0  0  0
  150.4842  131.9347  158.4147 O   0  0  0  0  0  0  0  0  0  0  0  0
  150.4783  132.3285  156.1675 N   0  0  0  0  0  0  0  0  0  0  0  0
  149.8742  132.2412  154.8280 C   0  0  0  0  0  0  0  0  0  0  0  0
  149.1837  133.5801  154.5104 C   0  0  0  0  0  0  0  0  0  0  0  0
  150.1750  134.7595  154.6048 C   0  0  0  0  0  0  0  0  0  0  0  0
  149.4502  136.0377  154.4203 N   0  3  0  0  0  0  0  0  0  0  0  0
  150.0755  137.2411  155.0211 C   0  0  1  0  0  0  0  0  0  0  0  0
  151.1355  137.8991  154.1307 C   0  0  0  0  0  0  0  0  0  0  0  0
  151.2369  139.3453  154.6347 C   0  0  0  0  0  0  0  0  0  0  0  0
  149.9752  139.6115  155.4748 C   0  0  0  0  0  0  0  0  0  0  0  0
  149.0756  138.3722  155.3291 C   0  0  1  0  0  0  0  0  0  0  0  0
  148.0391  138.5587  154.2907 N   0  0  0  0  0  0  0  0  0  0  0  0
  148.1123  138.2861  152.9451 C   0  0  0  0  0  0  0  0  0  0  0  0
  146.8935  138.6112  152.4086 C   0  0  0  0  0  0  0  0  0  0  0  0
  146.1231  139.0638  153.4446 N   0  3  0  0  0  0  0  0  0  0  0  0
  146.8181  139.0284  154.5859 C   0  0  0  0  0  0  0  0  0  0  0  0
  150.9436  134.7236  155.9467 C   0  0  0  0  0  0  0  0  0  0  0  0
  151.5491  133.3315  156.2023 C   0  0  0  0  0  0  0  0  0  0  0  0
  148.5529  130.4671  157.9242 H   0  0  0  0  0  0  0  0  0  0  0  0
  148.5869  130.7754  156.2007 H   0  0  0  0  0  0  0  0  0  0  0  0
  150.6566  132.0410  154.0943 H   0  0  0  0  0  0  0  0  0  0  0  0
  149.1604  131.4247  154.7188 H   0  0  0  0  0  0  0  0  0  0  0  0
  148.7438  133.5408  153.5131 H   0  0  0  0  0  0  0  0  0  0  0  0
  148.3575  133.7308  155.2072 H   0  0  0  0  0  0  0  0  0  0  0  0
  150.8922  134.6426  153.7915 H   0  0  0  0  0  0  0  0  0  0  0  0
  149.3615  136.2035  153.4281 H   0  0  0  0  0  0  0  0  0  0  0  0
  150.5446  136.9636  155.9655 H   0  0  0  0  0  0  0  0  0  0  0  0
  152.0962  137.3849  154.1770 H   0  0  0  0  0  0  0  0  0  0  0  0
  150.8138  137.8930  153.0886 H   0  0  0  0  0  0  0  0  0  0  0  0
  152.1282  139.4762  155.2498 H   0  0  0  0  0  0  0  0  0  0  0  0
  151.3173  140.0426  153.8000 H   0  0  0  0  0  0  0  0  0  0  0  0
  150.2635  139.7257  156.5207 H   0  0  0  0  0  0  0  0  0  0  0  0
  149.4735  140.5363  155.1865 H   0  0  0  0  0  0  0  0  0  0  0  0
  148.5583  138.1755  156.2701 H   0  0  0  0  0  0  0  0  0  0  0  0
  149.0027  137.8981  152.4722 H   0  0  0  0  0  0  0  0  0  0  0  0
  146.5269  138.5572  151.3935 H   0  0  0  0  0  0  0  0  0  0  0  0
  146.4607  139.3272  155.5556 H   0  0  0  0  0  0  0  0  0  0  0  0
  151.7422  135.4650  155.9550 H   0  0  0  0  0  0  0  0  0  0  0  0
  150.2721  134.9809  156.7673 H   0  0  0  0  0  0  0  0  0  0  0  0
  152.0945  133.3285  157.1473 H   0  0  0  0  0  0  0  0  0  0  0  0
  152.2891  133.0967  155.4359 H   0  0  0  0  0  0  0  0  0  0  0  0
  148.5251  135.9244  154.8093 H   0  0  0  0  0  0  0  0  0  0  0  0
  145.1670  139.3868  153.3597 H   0  0  0  0  0  0  0  0  0  0  0  0
  1  2  1  0  0  0  0
  1 21  1  0  0  0  0
  1 22  1  0  0  0  0
  2  3  2  0  0  0  0
  2  4  1  0  0  0  0
  4 20  1  0  0  0  0
  4  5  1  0  0  0  0
  5  6  1  0  0  0  0
  5 23  1  0  0  0  0
  5 24  1  0  0  0  0
  6  7  1  0  0  0  0
  6 25  1  0  0  0  0
  6 26  1  0  0  0  0
  7  8  1  0  0  0  0
  7 19  1  0  0  0  0
  7 27  1  0  0  0  0
  8  9  1  0  0  0  0
  8 28  1  0  0  0  0
  8 44  1  0  0  0  0
  9 13  1  0  0  0  0
  9 10  1  0  0  0  0
  9 29  1  0  0  0  0
 10 11  1  0  0  0  0
 10 30  1  0  0  0  0
 10 31  1  0  0  0  0
 11 12  1  0  0  0  0
 11 32  1  0  0  0  0
 11 33  1  0  0  0  0
 12 13  1  0  0  0  0
 12 34  1  0  0  0  0
 12 35  1  0  0  0  0
 13 14  1  0  0  0  0
 13 36  1  0  0  0  0
 14 18  1  0  0  0  0
 14 15  1  0  0  0  0
 15 16  2  0  0  0  0
 15 37  1  0  0  0  0
 16 17  1  0  0  0  0
 16 38  1  0  0  0  0
 17 18  2  0  0  0  0
 17 45  1  0  0  0  0
 18 39  1  0  0  0  0
 19 20  1  0  0  0  0
 19 40  1  0  0  0  0
 19 41  1  0  0  0  0
 20 42  1  0  0  0  0
 20 43  1  0  0  0  0
M  CHG  1   8   1
M  CHG  1  17   1
M  END
> <s_m_source_file>
AV-unprocessed.smi

> <i_m_source_file_index>
862

> <i_lp_mmshare_version>
43012

> <i_f3d_flags>
0

> <s_epik_input>
W05IMl1DKD1PKU4xW0NIMl1bQ0gyXVtDSF0oW0NIMl1bQ0gyXTEpW05IXVtDQEBIXTJbQ0gyXVtDSDJdW0NIMl1bQ0BIXTJuM1tjSF1bY0hdbltjSF0z

> <s_epik_cmdline>
J2VwaWtfcHl0aG9uJywgJy1waCcsICc3LjAnLCAnLXRuJywgJzgnLCAnLW1hJywgJzIwMCcsICctbWV0YWxfYmluZGluZycsICctaW1hZScsICc8aW5maWxlLm1hZT4nLCAnLW9tYWUnLCAnPG91dGZpbGUubWFlPic=

> <r_lp_tautomer_probability>
1

> <r_epik_Ionization_Penalty>
1.30217

> <r_epik_Ionization_Penalty_Charging>
0.00439521

> <r_epik_Ionization_Penalty_Neutral>
1.29777

> <r_epik_State_Penalty>
0.977606

> <r_epik_Charging_Adjusted_Penalty>
0.982001

> <i_epik_Tot_Q>
2

> <i_epik_Tot_abs_Q>
2

> <r_epik_Metal_State_Penalty>
1.03289

> <b_epik_Metal_Only>
0

> <s_lp_Force_Field>
OPLS_2005

> <r_lp_Energy>
67.0187

> <b_lp_Chiralities_Consistent>
1

> <s_lp_Variant>
AV-unprocessed.smi:862-6

> <Gold.Version>
5.8.1

> <Gold.Id.Protein>
6NUR|6NUR_protein|mol2

> <Gold.PLP.Fitness>
41.3495

> <Gold.PLP.PLP>
-24.8937

> <Gold.PLP.part.hbond>
-3.0000

> <Gold.PLP.part.metal>
0.0000

> <Gold.PLP.part.buried>
2.5261

> <Gold.PLP.part.nonpolar>
-23.9502

> <Gold.PLP.part.repulsive>
0.0127

> <Gold.PLP.ligand.clash>
0.0000

> <Gold.PLP.ligand.torsion>
1.3341

> <Gold.PLP.Chemscore.Hbond>
5.0000

> <Gold.PLP.Chemscore.CHOScore>
1.3532

> <Gold.PLP.Chemscore.Metal>
0.0000

> <Gold.Chemscore.Hbonds>
donor molecule, donor type, donor heavy atom, donor atom, acceptor molecule, acceptor atom, score
      L1  H     8    28       P1  7948  2.00
      L1  H    17    45       P1 10175  1.95
      P1  H  6896  6909       L1     3  1.00
      L1  C    15    37       P1  7948  0.21
      L1  C    15    37       P1  7957  0.33

> <Gold.PLP.Chemscore.Internal.Correction>
0.0644

> <Gold.Rescore>
     Score         DG    S(hbond)    S(metal)    S(lipo)     H(rot)  DE(clash)    DE(int)     intcor
     15.41     -17.61       2.66        0.00      64.43       1.68       0.11       2.09       ----

> <Gold.Chemscore.Fitness>
15.4140

> <Gold.Chemscore.DG>
-17.6141

> <Gold.Chemscore.ZeroCoef>
-5.4800

> <Gold.Chemscore.Hbond>
2.6648

> <Gold.Chemscore.Metal>
0.0000

> <Gold.Chemscore.Lipo>
64.4282

> <Gold.Chemscore.Internal_Hbond>
0.0000

> <Gold.Chemscore.DEClash>
0.1109

> <Gold.Chemscore.DEInternal>
2.0892

> <Gold.Chemscore.Rot>
1.6814

> <Gold.Chemscore.Internal.Correction>
   9.000000E+99

> <Gold.Chemscore.Hbonds>
donor molecule, donor type, donor heavy atom, donor atom, acceptor molecule, acceptor atom, score
      L1  H     8    28       P1  7948  0.69
      L1  H    17    45       P1 10175  0.88
      P1  H  6896  6909       L1     3  0.99

> <Gold.Chemscore.Hbond.Weighted>
-8.9003

> <Gold.Chemscore.Metal.Weighted>
-0.0000

> <Gold.Chemscore.Lipo.Weighted>
-7.5381

> <Gold.Chemscore.Internal_Hbond.Weighted>
0.0000

> <Gold.Chemscore.DEClash.Weighted>
0.1109

> <Gold.Chemscore.DEInternal.Weighted>
2.0892

> <Gold.Chemscore.Rot.Weighted>
4.3043

> <Gold.Chemscore.Internal.Correction.Weighted>
   9.000000E+99

> <Gold.Protein.RotatedTorsions>
[ 6907 6896 6895 6894 ] final  -42.70 input  -60.11 | X-H torsion
[ 7974 7965 7964 7962 ] final -139.57 input  175.53 | X-H torsion
[ 8008 7997 7996 7995 ] final  -98.02 input   59.86 | X-H torsion
[ 10167 10162 10161 10158 ] final  118.83 input  -65.29 | X-H torsion
[ 10718 10713 10712 10709 ] final   -2.09 input   66.30 | X-H torsion
[ 10763 10752 10751 10750 ] final   57.82 input  -60.55 | X-H torsion
[ 11005 11000 10999 10996 ] final  107.15 input  -57.11 | X-H torsion

> <Gold.Protein.ActiveResidues>
 VAL166  LYS551  ARG553  GLY616  TRP617  ASP618  TYR619  PRO620  LYS621  CYS622 
 ASP623  PHE694  ASN695  SER759  ASP760  ASP761  ALA762  ILE779  LEU786  VAL792 
 PHE793  MET794  SER795  GLU796  ALA797  LYS798  CYS799  TRP800  GLU811  SER814 

> <Gold.Protein.RotatedAtoms>
  150.9523  134.8921  159.7679 H   0  0  0  0  0  0  0  0  0  0  0  0  # atno 6907 bound_to 6896
  152.5124  134.3789  159.9354 H   0  0  0  0  0  0  0  0  0  0  0  0  # atno 6908 bound_to 6896
  151.3805  133.3783  159.2744 H   0  0  0  0  0  0  0  0  0  0  0  0  # atno 6909 bound_to 6896
  144.8666  140.6303  143.5294 H   0  0  0  0  0  0  0  0  0  0  0  0  # atno 7974 bound_to 7965
  154.7956  140.0458  157.1234 H   0  0  0  0  0  0  0  0  0  0  0  0  # atno 8008 bound_to 7997
  154.9539  140.3068  155.5042 H   0  0  0  0  0  0  0  0  0  0  0  0  # atno 8009 bound_to 7997
  156.2955  140.2283  156.4619 H   0  0  0  0  0  0  0  0  0  0  0  0  # atno 8010 bound_to 7997
  139.6086  144.7076  151.2896 H   0  0  0  0  0  0  0  0  0  0  0  0  # atno 10167 bound_to 10162
  156.7960  130.5377  149.5728 H   0  0  0  0  0  0  0  0  0  0  0  0  # atno 10718 bound_to 10713
  152.9858  135.5628  154.5453 H   0  0  0  0  0  0  0  0  0  0  0  0  # atno 10763 bound_to 10752
  154.4900  135.2792  155.1506 H   0  0  0  0  0  0  0  0  0  0  0  0  # atno 10764 bound_to 10752
  154.2979  135.6313  153.5465 H   0  0  0  0  0  0  0  0  0  0  0  0  # atno 10765 bound_to 10752
  139.8824  134.9392  156.5776 H   0  0  0  0  0  0  0  0  0  0  0  0  # atno 11005 bound_to 11000
  145.4209  139.1564  143.4074 LP  0  0  0  0  0  0  0  0  0  0  0  0  # atno 17320 bound_to 7965
  146.2900  140.4319  142.8743 LP  0  0  0  0  0  0  0  0  0  0  0  0  # atno 17321 bound_to 7965
  140.7303  143.6884  150.7942 LP  0  0  0  0  0  0  0  0  0  0  0  0  # atno 17342 bound_to 10162
  140.0475  143.5284  152.2689 LP  0  0  0  0  0  0  0  0  0  0  0  0  # atno 17343 bound_to 10162
  156.1130  130.6054  151.0077 LP  0  0  0  0  0  0  0  0  0  0  0  0  # atno 17370 bound_to 10713
  157.6577  131.0886  150.7909 LP  0  0  0  0  0  0  0  0  0  0  0  0  # atno 17371 bound_to 10713
  140.8051  133.8474  155.8761 LP  0  0  0  0  0  0  0  0  0  0  0  0  # atno 17394 bound_to 11000
  140.9557  134.1721  157.4693 LP  0  0  0  0  0  0  0  0  0  0  0  0  # atno 17395 bound_to 11000

$$$$
