AV-unprocessed.smi:212|AV-procd|sdf|1630|dock7
  -GOLD-   2262019583D 1   1.00000     0.00000
 Structure written by MMmdl.
 65 68  0  0  0  0  0  0  0  0  2 V2000
  142.9141  135.0290  153.2336 C   0  0  0  0  0  0  0  0  0  0  0  0
  144.3892  135.4193  153.4264 C   0  0  1  0  0  0  0  0  0  0  0  0
  145.3253  134.1919  153.3968 C   0  0  0  0  0  0  0  0  0  0  0  0
  145.4728  133.6467  152.0223 N   0  3  2  0  0  0  0  0  0  0  0  0
  146.2650  132.3898  151.9702 C   0  0  0  0  0  0  0  0  0  0  0  0
  145.8343  131.4682  150.8052 C   0  0  0  0  0  0  0  0  0  0  0  0
  144.3498  131.0928  150.9474 C   0  0  0  0  0  0  0  0  0  0  0  0
  146.0925  132.1073  149.4279 C   0  0  0  0  0  0  0  0  0  0  0  0
  146.5650  130.2597  150.8788 O   0  0  0  0  0  0  0  0  0  0  0  0
  145.9374  134.6756  151.0572 C   0  0  0  0  0  0  0  0  0  0  0  0
  145.0094  135.9037  151.0732 C   0  0  0  0  0  0  0  0  0  0  0  0
  144.8194  136.4081  152.4343 N   0  0  0  0  0  0  0  0  0  0  0  0
  145.6370  137.3944  152.8880 C   0  0  0  0  0  0  0  0  0  0  0  0
  146.1980  138.2686  152.0106 N   0  0  0  0  0  0  0  0  0  0  0  0
  147.0113  139.2355  152.4456 C   0  0  0  0  0  0  0  0  0  0  0  0
  147.3912  139.5063  153.6953 N   0  0  0  0  0  0  0  0  0  0  0  0
  146.8238  138.6399  154.5820 C   0  0  0  0  0  0  0  0  0  0  0  0
  145.9453  137.5651  154.2675 C   0  0  0  0  0  0  0  0  0  0  0  0
  145.5667  136.9083  155.4331 N   0  0  0  0  0  0  0  0  0  0  0  0
  146.1925  137.5522  156.3805 C   0  0  0  0  0  0  0  0  0  0  0  0
  146.9642  138.6106  155.9575 N   0  0  0  0  0  0  0  0  0  0  0  0
  147.7616  139.4975  156.7859 C   0  0  0  0  0  0  0  0  0  0  0  0
  148.7835  140.3252  155.9644 C   0  0  1  0  0  0  0  0  0  0  0  0
  148.1430  141.6168  155.4062 C   0  0  0  0  0  0  0  0  0  0  0  0
  148.9685  142.2179  154.4303 O   0  0  0  0  0  0  0  0  0  0  0  0
  150.1018  140.6149  156.7334 C   0  0  1  0  0  0  0  0  0  0  0  0
  150.5698  139.5394  157.7080 C   0  0  0  0  0  0  0  0  0  0  0  0
  152.0741  139.7686  157.7395 C   0  0  0  0  0  0  0  0  0  0  0  0
  152.3741  140.0471  156.3821 O   0  0  0  0  0  0  0  0  0  0  0  0
  151.3395  140.8706  155.8542 C   0  0  0  0  0  0  0  0  0  0  0  0
  142.5884  134.3413  154.0144 H   0  0  0  0  0  0  0  0  0  0  0  0
  142.7399  134.5417  152.2741 H   0  0  0  0  0  0  0  0  0  0  0  0
  142.2707  135.9079  153.2824 H   0  0  0  0  0  0  0  0  0  0  0  0
  144.4662  135.8445  154.4269 H   0  0  0  0  0  0  0  0  0  0  0  0
  146.3113  134.4722  153.7718 H   0  0  0  0  0  0  0  0  0  0  0  0
  144.9424  133.4195  154.0654 H   0  0  0  0  0  0  0  0  0  0  0  0
  147.3304  132.6185  151.9049 H   0  0  0  0  0  0  0  0  0  0  0  0
  146.1464  131.8397  152.9052 H   0  0  0  0  0  0  0  0  0  0  0  0
  143.7129  131.9765  150.8920 H   0  0  0  0  0  0  0  0  0  0  0  0
  144.1508  130.6037  151.9019 H   0  0  0  0  0  0  0  0  0  0  0  0
  144.0321  130.4116  150.1567 H   0  0  0  0  0  0  0  0  0  0  0  0
  145.5545  133.0503  149.3257 H   0  0  0  0  0  0  0  0  0  0  0  0
  145.7633  131.4534  148.6193 H   0  0  0  0  0  0  0  0  0  0  0  0
  147.1510  132.3128  149.2661 H   0  0  0  0  0  0  0  0  0  0  0  0
  147.4416  130.4168  150.5611 H   0  0  0  0  0  0  0  0  0  0  0  0
  146.9574  134.9703  151.3078 H   0  0  0  0  0  0  0  0  0  0  0  0
  145.9696  134.2580  150.0510 H   0  0  0  0  0  0  0  0  0  0  0  0
  145.3947  136.6841  150.4155 H   0  0  0  0  0  0  0  0  0  0  0  0
  144.0348  135.6318  150.6682 H   0  0  0  0  0  0  0  0  0  0  0  0
  147.4153  139.8857  151.6836 H   0  0  0  0  0  0  0  0  0  0  0  0
  146.1014  137.2760  157.4211 H   0  0  0  0  0  0  0  0  0  0  0  0
  147.0818  140.1533  157.3298 H   0  0  0  0  0  0  0  0  0  0  0  0
  148.2585  138.8825  157.5355 H   0  0  0  0  0  0  0  0  0  0  0  0
  149.0641  139.7163  155.1034 H   0  0  0  0  0  0  0  0  0  0  0  0
  147.1863  141.4048  154.9298 H   0  0  0  0  0  0  0  0  0  0  0  0
  147.9479  142.3320  156.2058 H   0  0  0  0  0  0  0  0  0  0  0  0
  149.2456  143.0634  154.7495 H   0  0  0  0  0  0  0  0  0  0  0  0
  149.9617  141.5274  157.3148 H   0  0  0  0  0  0  0  0  0  0  0  0
  150.1084  139.6275  158.6921 H   0  0  0  0  0  0  0  0  0  0  0  0
  150.3731  138.5363  157.3325 H   0  0  0  0  0  0  0  0  0  0  0  0
  152.3274  140.6312  158.3580 H   0  0  0  0  0  0  0  0  0  0  0  0
  152.6267  138.9033  158.1059 H   0  0  0  0  0  0  0  0  0  0  0  0
  151.1836  140.6441  154.7999 H   0  0  0  0  0  0  0  0  0  0  0  0
  151.6418  141.9168  155.9181 H   0  0  0  0  0  0  0  0  0  0  0  0
  144.5404  133.3913  151.7302 H   0  0  0  0  0  0  0  0  0  0  0  0
  1  2  1  0  0  0  0
  1 31  1  0  0  0  0
  1 32  1  0  0  0  0
  1 33  1  0  0  0  0
  2 12  1  0  0  0  0
  2  3  1  0  0  0  0
  2 34  1  0  0  0  0
  3  4  1  0  0  0  0
  3 35  1  0  0  0  0
  3 36  1  0  0  0  0
  4  5  1  0  0  0  0
  4 10  1  0  0  0  0
  4 65  1  0  0  0  0
  5  6  1  0  0  0  0
  5 37  1  0  0  0  0
  5 38  1  0  0  0  0
  6  7  1  0  0  0  0
  6  8  1  0  0  0  0
  6  9  1  0  0  0  0
  7 39  1  0  0  0  0
  7 40  1  0  0  0  0
  7 41  1  0  0  0  0
  8 42  1  0  0  0  0
  8 43  1  0  0  0  0
  8 44  1  0  0  0  0
  9 45  1  0  0  0  0
 10 11  1  0  0  0  0
 10 46  1  0  0  0  0
 10 47  1  0  0  0  0
 11 12  1  0  0  0  0
 11 48  1  0  0  0  0
 11 49  1  0  0  0  0
 12 13  1  0  0  0  0
 13 18  1  0  0  0  0
 13 14  2  0  0  0  0
 14 15  1  0  0  0  0
 15 16  2  0  0  0  0
 15 50  1  0  0  0  0
 16 17  1  0  0  0  0
 17 21  1  0  0  0  0
 17 18  2  0  0  0  0
 18 19  1  0  0  0  0
 19 20  2  0  0  0  0
 20 21  1  0  0  0  0
 20 51  1  0  0  0  0
 21 22  1  0  0  0  0
 22 23  1  0  0  0  0
 22 52  1  0  0  0  0
 22 53  1  0  0  0  0
 23 24  1  0  0  0  0
 23 26  1  0  0  0  0
 23 54  1  0  0  0  0
 24 25  1  0  0  0  0
 24 55  1  0  0  0  0
 24 56  1  0  0  0  0
 25 57  1  0  0  0  0
 26 30  1  0  0  0  0
 26 27  1  0  0  0  0
 26 58  1  0  0  0  0
 27 28  1  0  0  0  0
 27 59  1  0  0  0  0
 27 60  1  0  0  0  0
 28 29  1  0  0  0  0
 28 61  1  0  0  0  0
 28 62  1  0  0  0  0
 29 30  1  0  0  0  0
 30 63  1  0  0  0  0
 30 64  1  0  0  0  0
M  CHG  1   4   1
M  END
> <s_m_source_file>
AV-unprocessed.smi

> <i_m_source_file_index>
212

> <i_lp_mmshare_version>
43012

> <i_f3d_flags>
0

> <s_epik_input>
W0NIM11bQ0BASF0xW0NIMl1OKFtDSDJdQyhbQ0gzXSkoW0NIM10pW09IXSlbQ0gyXVtDSDJdTjFjKG5bY0hdbjIpYyhjMjMpbltjSF1uM1tDSDJdW0NASF0oW0NIMl1bT0hdKVtDQEBIXTRbQ0gyXVtDSDJdT1tDSDJdNA==

> <s_epik_cmdline>
J2VwaWtfcHl0aG9uJywgJy1waCcsICc3LjAnLCAnLXRuJywgJzgnLCAnLW1hJywgJzIwMCcsICctbWV0YWxfYmluZGluZycsICctaW1hZScsICc8aW5maWxlLm1hZT4nLCAnLW9tYWUnLCAnPG91dGZpbGUubWFlPic=

> <r_lp_tautomer_probability>
1

> <r_epik_Ionization_Penalty>
0.00182193

> <r_epik_Ionization_Penalty_Charging>
0.00173996

> <r_epik_Ionization_Penalty_Neutral>
8.19718e-05

> <r_epik_State_Penalty>
-0

> <r_epik_Charging_Adjusted_Penalty>
0.00173996

> <i_epik_Tot_Q>
1

> <i_epik_Tot_abs_Q>
1

> <r_epik_Metal_State_Penalty>
-0

> <b_epik_Metal_Only>
0

> <s_lp_Force_Field>
OPLS_2005

> <r_lp_Energy>
60.3061

> <b_lp_Chiralities_Consistent>
1

> <s_lp_Variant>
AV-unprocessed.smi:212-14

> <Gold.Version>
5.8.1

> <Gold.Id.Protein>
6NUR|6NUR_protein|mol2

> <Gold.PLP.Fitness>
47.5443

> <Gold.PLP.PLP>
-37.5190

> <Gold.PLP.part.hbond>
-4.0000

> <Gold.PLP.part.metal>
0.0000

> <Gold.PLP.part.buried>
-2.9863

> <Gold.PLP.part.nonpolar>
-29.8006

> <Gold.PLP.part.repulsive>
0.5100

> <Gold.PLP.ligand.clash>
0.0000

> <Gold.PLP.ligand.torsion>
1.5310

> <Gold.PLP.Chemscore.Hbond>
3.0973

> <Gold.PLP.Chemscore.CHOScore>
0.9496

> <Gold.PLP.Chemscore.Metal>
0.0000

> <Gold.Chemscore.Hbonds>
donor molecule, donor type, donor heavy atom, donor atom, acceptor molecule, acceptor atom, score
      L1  H     9    45       P1 10747  1.00
      L1  H    25    57       P1  8028  1.00
      P1  H  7997  8008       L1    29  1.00
      P1  H  8011  8017       L1    25  0.09
      L1  C    15    50       P1  7957  0.91

> <Gold.PLP.Chemscore.Internal.Correction>
0.9464

> <Gold.Rescore>
     Score         DG    S(hbond)    S(metal)    S(lipo)     H(rot)  DE(clash)    DE(int)     intcor
     10.21     -16.43       2.78        0.00      88.60       3.40       0.44       5.78       ----

> <Gold.Chemscore.Fitness>
10.2076

> <Gold.Chemscore.DG>
-16.4308

> <Gold.Chemscore.ZeroCoef>
-5.4800

> <Gold.Chemscore.Hbond>
2.7801

> <Gold.Chemscore.Metal>
0.0000

> <Gold.Chemscore.Lipo>
88.5958

> <Gold.Chemscore.Internal_Hbond>
0.0000

> <Gold.Chemscore.DEClash>
0.4438

> <Gold.Chemscore.DEInternal>
5.7794

> <Gold.Chemscore.Rot>
3.3986

> <Gold.Chemscore.Internal.Correction>
   9.000000E+99

> <Gold.Chemscore.Hbonds>
donor molecule, donor type, donor heavy atom, donor atom, acceptor molecule, acceptor atom, score
      L1  H     9    45       P1 10747  0.99
      L1  H    25    57       P1  8028  0.95
      P1  H  7997  8008       L1    29  0.54
      P1  H  8011  8017       L1    25  0.01

> <Gold.Chemscore.Hbond.Weighted>
-9.2855

> <Gold.Chemscore.Metal.Weighted>
-0.0000

> <Gold.Chemscore.Lipo.Weighted>
-10.3657

> <Gold.Chemscore.Internal_Hbond.Weighted>
0.0000

> <Gold.Chemscore.DEClash.Weighted>
0.4438

> <Gold.Chemscore.DEInternal.Weighted>
5.7794

> <Gold.Chemscore.Rot.Weighted>
8.7005

> <Gold.Chemscore.Internal.Correction.Weighted>
   9.000000E+99

> <Gold.Protein.RotatedTorsions>
[ 6907 6896 6895 6894 ] final   45.11 input  -60.11 | X-H torsion
[ 7974 7965 7964 7962 ] final -122.24 input  175.53 | X-H torsion
[ 8008 7997 7996 7995 ] final  -38.15 input   59.86 | X-H torsion
[ 10167 10162 10161 10158 ] final   68.07 input  -65.29 | X-H torsion
[ 10718 10713 10712 10709 ] final  164.47 input   66.30 | X-H torsion
[ 10763 10752 10751 10750 ] final -153.93 input  -60.55 | X-H torsion
[ 11005 11000 10999 10996 ] final -140.85 input  -57.11 | X-H torsion

> <Gold.Protein.ActiveResidues>
 VAL166  LYS551  ARG553  GLY616  TRP617  ASP618  TYR619  PRO620  LYS621  CYS622 
 ASP623  PHE694  ASN695  SER759  ASP760  ASP761  ALA762  ILE779  LEU786  VAL792 
 PHE793  MET794  SER795  GLU796  ALA797  LYS798  CYS799  TRP800  GLU811  SER814 

> <Gold.Protein.RotatedAtoms>
  152.2406  134.8232  160.0460 H   0  0  0  0  0  0  0  0  0  0  0  0  # atno 6907 bound_to 6896
  151.8948  133.3519  159.3819 H   0  0  0  0  0  0  0  0  0  0  0  0  # atno 6908 bound_to 6896
  150.7052  134.4813  159.5516 H   0  0  0  0  0  0  0  0  0  0  0  0  # atno 6909 bound_to 6896
  145.0316  140.8072  143.4320 H   0  0  0  0  0  0  0  0  0  0  0  0  # atno 7974 bound_to 7965
  154.4041  140.1585  156.2654 H   0  0  0  0  0  0  0  0  0  0  0  0  # atno 8008 bound_to 7997
  155.9000  140.3433  155.5997 H   0  0  0  0  0  0  0  0  0  0  0  0  # atno 8009 bound_to 7997
  155.7459  140.0798  157.2215 H   0  0  0  0  0  0  0  0  0  0  0  0  # atno 8010 bound_to 7997
  140.0826  144.5057  150.7151 H   0  0  0  0  0  0  0  0  0  0  0  0  # atno 10167 bound_to 10162
  157.0940  131.0425  151.2525 H   0  0  0  0  0  0  0  0  0  0  0  0  # atno 10718 bound_to 10713
  154.7894  135.3201  154.7813 H   0  0  0  0  0  0  0  0  0  0  0  0  # atno 10763 bound_to 10752
  153.8505  135.6862  153.4797 H   0  0  0  0  0  0  0  0  0  0  0  0  # atno 10764 bound_to 10752
  153.1557  135.4681  154.9641 H   0  0  0  0  0  0  0  0  0  0  0  0  # atno 10765 bound_to 10752
  140.8382  134.2434  157.4823 H   0  0  0  0  0  0  0  0  0  0  0  0  # atno 11005 bound_to 11000
  145.1763  139.2376  143.5316 LP  0  0  0  0  0  0  0  0  0  0  0  0  # atno 17320 bound_to 7965
  146.3499  140.1526  142.8592 LP  0  0  0  0  0  0  0  0  0  0  0  0  # atno 17321 bound_to 7965
  140.7070  143.2475  151.4697 LP  0  0  0  0  0  0  0  0  0  0  0  0  # atno 17342 bound_to 10162
  139.5770  144.1795  152.1917 LP  0  0  0  0  0  0  0  0  0  0  0  0  # atno 17343 bound_to 10162
  157.4697  130.7702  149.7312 LP  0  0  0  0  0  0  0  0  0  0  0  0  # atno 17370 bound_to 10713
  155.9891  130.3954  150.3090 LP  0  0  0  0  0  0  0  0  0  0  0  0  # atno 17371 bound_to 10713
  139.8703  134.9622  156.4420 LP  0  0  0  0  0  0  0  0  0  0  0  0  # atno 17394 bound_to 11000
  140.8924  133.7838  155.9587 LP  0  0  0  0  0  0  0  0  0  0  0  0  # atno 17395 bound_to 11000

$$$$
