AV-unprocessed.smi:1074|AV-procd|sdf|4692|dock5
  -GOLD-   22720 3213D 1   1.00000     0.00000
 Structure written by MMmdl.
 44 45  0  0  0  0  0  0  0  0  1 V2000
  146.4302  131.5145  153.9750 C   0  0  0  0  0  0  0  0  0  0  0  0
  145.3219  132.1450  153.2745 N   0  0  0  0  0  0  0  0  0  0  0  0
  145.4175  132.7138  152.0636 C   0  0  0  0  0  0  0  0  0  0  0  0
  146.4704  132.7481  151.4266 O   0  0  0  0  0  0  0  0  0  0  0  0
  144.1267  133.3354  151.4972 C   0  0  2  0  0  0  0  0  0  0  0  0
  144.3879  134.2683  150.2911 C   0  0  0  0  0  0  0  0  0  0  0  0
  144.9359  135.6533  150.6844 C   0  0  0  0  0  0  0  0  0  0  0  0
  144.0397  136.3389  151.7341 C   0  0  2  0  0  0  0  0  0  0  0  0
  144.6129  137.6163  152.1464 N   0  0  0  0  0  0  0  0  0  0  0  0
  145.7614  137.7712  152.8203 C   0  0  0  0  0  0  0  0  0  0  0  0
  146.4610  136.8296  153.1910 O   0  0  0  0  0  0  0  0  0  0  0  0
  146.0205  139.0732  153.0330 N   0  0  0  0  0  0  0  0  0  0  0  0
  147.1446  139.6836  153.6554 C   0  0  0  0  0  0  0  0  0  0  0  0
  147.2291  141.0491  154.0212 C   0  0  0  0  0  0  0  0  0  0  0  0
  148.4012  141.5152  154.6468 C   0  0  0  0  0  0  0  0  0  0  0  0
  149.4516  140.6090  154.8917 C   0  0  0  0  0  0  0  0  0  0  0  0
  150.5952  141.0739  155.5084 O   0  0  0  0  0  0  0  0  0  0  0  0
  151.4338  140.1351  156.1731 C   0  0  0  0  0  0  0  0  0  0  0  0
  149.3777  139.3000  154.5468 N   0  0  0  0  0  0  0  0  0  0  0  0
  148.2516  138.8598  153.9473 C   0  0  0  0  0  0  0  0  0  0  0  0
  143.8533  135.4390  152.9680 C   0  0  0  0  0  0  0  0  0  0  0  0
  143.2926  134.0585  152.5800 C   0  0  0  0  0  0  0  0  0  0  0  0
  146.0968  131.1525  154.9475 H   0  0  0  0  0  0  0  0  0  0  0  0
  147.2427  132.2242  154.1357 H   0  0  0  0  0  0  0  0  0  0  0  0
  146.8156  130.6661  153.4084 H   0  0  0  0  0  0  0  0  0  0  0  0
  144.4261  132.1545  153.7406 H   0  0  0  0  0  0  0  0  0  0  0  0
  143.5192  132.5065  151.1296 H   0  0  0  0  0  0  0  0  0  0  0  0
  145.0710  133.7918  149.5866 H   0  0  0  0  0  0  0  0  0  0  0  0
  143.4524  134.4055  149.7475 H   0  0  0  0  0  0  0  0  0  0  0  0
  145.9526  135.5604  151.0663 H   0  0  0  0  0  0  0  0  0  0  0  0
  145.0074  136.2762  149.7920 H   0  0  0  0  0  0  0  0  0  0  0  0
  143.0559  136.5152  151.2946 H   0  0  0  0  0  0  0  0  0  0  0  0
  144.0983  138.4456  151.8890 H   0  0  0  0  0  0  0  0  0  0  0  0
  145.3172  139.7169  152.7012 H   0  0  0  0  0  0  0  0  0  0  0  0
  146.4281  141.7492  153.8483 H   0  0  0  0  0  0  0  0  0  0  0  0
  148.4910  142.5516  154.9371 H   0  0  0  0  0  0  0  0  0  0  0  0
  152.2876  140.6571  156.6047 H   0  0  0  0  0  0  0  0  0  0  0  0
  151.8195  139.3854  155.4808 H   0  0  0  0  0  0  0  0  0  0  0  0
  150.9066  139.6345  156.9866 H   0  0  0  0  0  0  0  0  0  0  0  0
  148.2352  137.8100  153.6928 H   0  0  0  0  0  0  0  0  0  0  0  0
  144.8021  135.3234  153.4930 H   0  0  0  0  0  0  0  0  0  0  0  0
  143.1751  135.9177  153.6754 H   0  0  0  0  0  0  0  0  0  0  0  0
  142.2735  134.1844  152.2120 H   0  0  0  0  0  0  0  0  0  0  0  0
  143.2100  133.4348  153.4712 H   0  0  0  0  0  0  0  0  0  0  0  0
  1  2  1  0  0  0  0
  1 23  1  0  0  0  0
  1 24  1  0  0  0  0
  1 25  1  0  0  0  0
  2  3  1  0  0  0  0
  2 26  1  0  0  0  0
  3  4  2  0  0  0  0
  3  5  1  0  0  0  0
  5 22  1  0  0  0  0
  5  6  1  0  0  0  0
  5 27  1  0  0  0  0
  6  7  1  0  0  0  0
  6 28  1  0  0  0  0
  6 29  1  0  0  0  0
  7  8  1  0  0  0  0
  7 30  1  0  0  0  0
  7 31  1  0  0  0  0
  8  9  1  0  0  0  0
  8 21  1  0  0  0  0
  8 32  1  0  0  0  0
  9 10  1  0  0  0  0
  9 33  1  0  0  0  0
 10 11  2  0  0  0  0
 10 12  1  0  0  0  0
 12 13  1  0  0  0  0
 12 34  1  0  0  0  0
 13 20  1  0  0  0  0
 13 14  2  0  0  0  0
 14 15  1  0  0  0  0
 14 35  1  0  0  0  0
 15 16  2  0  0  0  0
 15 36  1  0  0  0  0
 16 17  1  0  0  0  0
 16 19  1  0  0  0  0
 17 18  1  0  0  0  0
 18 37  1  0  0  0  0
 18 38  1  0  0  0  0
 18 39  1  0  0  0  0
 19 20  2  0  0  0  0
 20 40  1  0  0  0  0
 21 22  1  0  0  0  0
 21 41  1  0  0  0  0
 21 42  1  0  0  0  0
 22 43  1  0  0  0  0
 22 44  1  0  0  0  0
M  END
> <s_m_source_file>
AV-unprocessed.smi

> <i_m_source_file_index>
1074

> <i_lp_mmshare_version>
43012

> <i_f3d_flags>
0

> <s_epik_input>
W0NIM11bTkhdQyg9TylbQ0BASF0xW0NIMl1bQ0gyXVtDQEhdKFtDSDJdW0NIMl0xKVtOSF1DKD1PKVtOSF1jMltjSF1bY0hdYyhPW0NIM10pbltjSF0y

> <s_epik_cmdline>
J2VwaWtfcHl0aG9uJywgJy1waCcsICc3LjAnLCAnLXRuJywgJzgnLCAnLW1hJywgJzIwMCcsICctbWV0YWxfYmluZGluZycsICctaW1hZScsICc8aW5maWxlLm1hZT4nLCAnLW9tYWUnLCAnPG91dGZpbGUubWFlPic=

> <r_lp_tautomer_probability>
1

> <r_epik_Ionization_Penalty>
9.85099e-05

> <r_epik_Ionization_Penalty_Charging>
0

> <r_epik_Ionization_Penalty_Neutral>
9.85099e-05

> <r_epik_State_Penalty>
-0

> <r_epik_Charging_Adjusted_Penalty>
0

> <i_epik_Tot_Q>
0

> <i_epik_Tot_abs_Q>
0

> <r_epik_Metal_State_Penalty>
-0

> <b_epik_Metal_Only>
0

> <s_lp_Force_Field>
OPLS_2005

> <r_lp_Energy>
10.6819

> <b_lp_Chiralities_Consistent>
1

> <s_lp_Variant>
AV-unprocessed.smi:1074-2

> <Gold.Version>
5.8.1

> <Gold.Id.Protein>
6NUR|6NUR_protein|mol2

> <Gold.PLP.Fitness>
43.4729

> <Gold.PLP.PLP>
-32.9309

> <Gold.PLP.part.hbond>
-5.0000

> <Gold.PLP.part.metal>
0.0000

> <Gold.PLP.part.buried>
-0.6417

> <Gold.PLP.part.nonpolar>
-29.3429

> <Gold.PLP.part.repulsive>
2.1004

> <Gold.PLP.ligand.clash>
0.0000

> <Gold.PLP.ligand.torsion>
0.8297

> <Gold.PLP.Chemscore.Hbond>
3.0499

> <Gold.PLP.Chemscore.CHOScore>
1.0000

> <Gold.PLP.Chemscore.Metal>
0.0000

> <Gold.Chemscore.Hbonds>
donor molecule, donor type, donor heavy atom, donor atom, acceptor molecule, acceptor atom, score
      L1  H     2    26       P1 10957  0.69
      L1  H     9    33       P1 10175  0.71
      L1  H    12    34       P1 10175  1.00
      P1  H  7989  7998       L1    17  0.09
      L1  C    20    40       P1  7948  1.00

> <Gold.PLP.Chemscore.Internal.Correction>
0.0517

> <Gold.Rescore>
     Score         DG    S(hbond)    S(metal)    S(lipo)     H(rot)  DE(clash)    DE(int)     intcor
     12.31     -15.22       1.94        0.00      63.49       1.62       0.28       2.62       ----

> <Gold.Chemscore.Fitness>
12.3130

> <Gold.Chemscore.DG>
-15.2184

> <Gold.Chemscore.ZeroCoef>
-5.4800

> <Gold.Chemscore.Hbond>
1.9370

> <Gold.Chemscore.Metal>
0.0000

> <Gold.Chemscore.Lipo>
63.4882

> <Gold.Chemscore.Internal_Hbond>
0.0000

> <Gold.Chemscore.DEClash>
0.2828

> <Gold.Chemscore.DEInternal>
2.6225

> <Gold.Chemscore.Rot>
1.6248

> <Gold.Chemscore.Internal.Correction>
   9.000000E+99

> <Gold.Chemscore.Hbonds>
donor molecule, donor type, donor heavy atom, donor atom, acceptor molecule, acceptor atom, score
      L1  H     2    26       P1 10957  0.08
      L1  H     9    33       P1 10175  0.69
      L1  H    12    34       P1 10175  1.00

> <Gold.Chemscore.Hbond.Weighted>
-6.4697

> <Gold.Chemscore.Metal.Weighted>
-0.0000

> <Gold.Chemscore.Lipo.Weighted>
-7.4281

> <Gold.Chemscore.Internal_Hbond.Weighted>
0.0000

> <Gold.Chemscore.DEClash.Weighted>
0.2828

> <Gold.Chemscore.DEInternal.Weighted>
2.6225

> <Gold.Chemscore.Rot.Weighted>
4.1595

> <Gold.Chemscore.Internal.Correction.Weighted>
   9.000000E+99

> <Gold.Protein.RotatedTorsions>
[ 6907 6896 6895 6894 ] final  146.90 input  -60.11 | X-H torsion
[ 7974 7965 7964 7962 ] final -142.44 input  175.53 | X-H torsion
[ 8008 7997 7996 7995 ] final  142.52 input   59.86 | X-H torsion
[ 10167 10162 10161 10158 ] final  -86.84 input  -65.29 | X-H torsion
[ 10718 10713 10712 10709 ] final   88.56 input   66.30 | X-H torsion
[ 10763 10752 10751 10750 ] final   38.14 input  -60.55 | X-H torsion
[ 11005 11000 10999 10996 ] final  -97.40 input  -57.11 | X-H torsion

> <Gold.Protein.ActiveResidues>
 VAL166  LYS551  ARG553  GLY616  TRP617  ASP618  TYR619  PRO620  LYS621  CYS622 
 ASP623  PHE694  ASN695  SER759  ASP760  ASP761  ALA762  ILE779  LEU786  VAL792 
 PHE793  MET794  SER795  GLU796  ALA797  LYS798  CYS799  TRP800  GLU811  SER814 

> <Gold.Protein.RotatedAtoms>
  152.1618  133.4586  159.4864 H   0  0  0  0  0  0  0  0  0  0  0  0  # atno 6907 bound_to 6896
  150.6908  134.2062  159.4350 H   0  0  0  0  0  0  0  0  0  0  0  0  # atno 6908 bound_to 6896
  151.9965  134.9951  160.0614 H   0  0  0  0  0  0  0  0  0  0  0  0  # atno 6909 bound_to 6896
  144.8443  140.5957  143.5432 H   0  0  0  0  0  0  0  0  0  0  0  0  # atno 7974 bound_to 7965
  156.2948  140.2286  156.4742 H   0  0  0  0  0  0  0  0  0  0  0  0  # atno 8008 bound_to 7997
  154.7909  140.0454  157.1221 H   0  0  0  0  0  0  0  0  0  0  0  0  # atno 8009 bound_to 7997
  154.9646  140.3059  155.5018 H   0  0  0  0  0  0  0  0  0  0  0  0  # atno 8010 bound_to 7997
  140.3902  143.2708  151.9274 H   0  0  0  0  0  0  0  0  0  0  0  0  # atno 10167 bound_to 10162
  157.6950  131.0299  150.3293 H   0  0  0  0  0  0  0  0  0  0  0  0  # atno 10718 bound_to 10713
  153.0012  135.6258  154.2256 H   0  0  0  0  0  0  0  0  0  0  0  0  # atno 10763 bound_to 10752
  154.1999  135.2804  155.2996 H   0  0  0  0  0  0  0  0  0  0  0  0  # atno 10764 bound_to 10752
  154.5692  135.5682  153.7138 H   0  0  0  0  0  0  0  0  0  0  0  0  # atno 10765 bound_to 10752
  141.1380  133.8168  157.0701 H   0  0  0  0  0  0  0  0  0  0  0  0  # atno 11005 bound_to 11000
  145.4629  139.1511  143.3856 LP  0  0  0  0  0  0  0  0  0  0  0  0  # atno 17320 bound_to 7965
  146.2730  140.4760  142.8806 LP  0  0  0  0  0  0  0  0  0  0  0  0  # atno 17321 bound_to 7965
  139.4789  144.5735  151.8050 LP  0  0  0  0  0  0  0  0  0  0  0  0  # atno 17342 bound_to 10162
  140.4847  144.1398  150.5939 LP  0  0  0  0  0  0  0  0  0  0  0  0  # atno 17343 bound_to 10162
  156.3769  130.3873  149.7132 LP  0  0  0  0  0  0  0  0  0  0  0  0  # atno 17370 bound_to 10713
  156.4527  130.7914  151.2935 LP  0  0  0  0  0  0  0  0  0  0  0  0  # atno 17371 bound_to 10713
  140.0517  134.9802  157.1148 LP  0  0  0  0  0  0  0  0  0  0  0  0  # atno 17394 bound_to 11000
  140.3980  134.2113  155.7164 LP  0  0  0  0  0  0  0  0  0  0  0  0  # atno 17395 bound_to 11000

$$$$
