AV-unprocessed.smi:67|AV-procd|sdf|633|dock2
  -GOLD-   2262016523D 1   1.00000     0.00000
 Structure written by MMmdl.
 48 50  0  0  0  0  0  0  0  0  2 V2000
  147.9062  136.7209  154.2949 O   0  0  0  0  0  0  0  0  0  0  0  0
  147.5480  138.0916  154.2967 C   0  0  1  0  0  0  0  0  0  0  0  0
  148.8215  138.9531  154.1015 C   0  0  0  0  0  0  0  0  0  0  0  0
  149.8261  138.8942  155.1692 N   0  0  0  0  0  0  0  0  0  0  0  0
  149.4518  139.6895  156.3442 C   0  0  0  0  0  0  0  0  0  0  0  0
  150.4633  139.5711  157.4969 C   0  0  0  0  0  0  0  0  0  0  0  0
  151.8823  139.9234  157.0052 C   0  0  0  0  0  0  0  0  0  0  0  0
  152.8923  139.9126  158.0178 O   0  0  0  0  0  0  0  0  0  0  0  0
  152.9604  140.8478  159.0327 C   0  0  0  0  0  0  0  0  0  0  0  0
  153.4332  140.6163  160.3487 C   0  0  0  0  0  0  0  0  0  0  0  0
  153.4470  141.6566  161.2971 C   0  0  0  0  0  0  0  0  0  0  0  0
  152.9939  142.9416  160.9488 C   0  0  0  0  0  0  0  0  0  0  0  0
  152.5258  143.1938  159.6427 C   0  0  0  0  0  0  0  0  0  0  0  0
  152.0273  144.5731  159.2381 C   0  0  0  0  0  0  0  0  0  0  0  0
  152.7055  145.0064  158.1753 F   0  0  0  0  0  0  0  0  0  0  0  0
  150.7350  144.4996  158.9218 F   0  0  0  0  0  0  0  0  0  0  0  0
  152.1754  145.4621  160.2212 F   0  0  0  0  0  0  0  0  0  0  0  0
  152.5112  142.1434  158.7011 C   0  0  0  0  0  0  0  0  0  0  0  0
  152.2571  139.1914  155.7001 C   0  0  0  0  0  0  0  0  0  0  0  0
  151.1278  139.3436  154.6678 C   0  0  0  0  0  0  0  0  0  0  0  0
  146.4232  138.3552  153.2893 C   0  0  0  0  0  0  0  0  0  0  0  0
  145.1555  137.8843  154.0060 C   0  0  0  0  0  0  0  0  0  0  0  0
  145.4261  138.0037  155.4518 N   0  3  0  0  0  0  0  0  0  0  0  0
  146.8470  138.3592  155.6388 C   0  0  0  0  0  0  0  0  0  0  0  0
  148.1696  136.4807  153.4192 H   0  0  0  0  0  0  0  0  0  0  0  0
  149.3021  138.6029  153.1873 H   0  0  0  0  0  0  0  0  0  0  0  0
  148.5464  139.9896  153.8993 H   0  0  0  0  0  0  0  0  0  0  0  0
  149.3411  140.7372  156.0607 H   0  0  0  0  0  0  0  0  0  0  0  0
  148.4846  139.3680  156.7257 H   0  0  0  0  0  0  0  0  0  0  0  0
  150.1776  140.2427  158.3068 H   0  0  0  0  0  0  0  0  0  0  0  0
  150.4044  138.5667  157.9077 H   0  0  0  0  0  0  0  0  0  0  0  0
  151.8321  140.9783  156.7315 H   0  0  0  0  0  0  0  0  0  0  0  0
  153.7918  139.6545  160.6720 H   0  0  0  0  0  0  0  0  0  0  0  0
  153.8063  141.4670  162.2979 H   0  0  0  0  0  0  0  0  0  0  0  0
  153.0087  143.7260  161.6909 H   0  0  0  0  0  0  0  0  0  0  0  0
  152.1459  142.3347  157.7026 H   0  0  0  0  0  0  0  0  0  0  0  0
  153.1810  139.6073  155.2976 H   0  0  0  0  0  0  0  0  0  0  0  0
  152.4488  138.1330  155.8557 H   0  0  0  0  0  0  0  0  0  0  0  0
  151.3970  138.7749  153.7770 H   0  0  0  0  0  0  0  0  0  0  0  0
  151.0607  140.3868  154.3549 H   0  0  0  0  0  0  0  0  0  0  0  0
  146.3469  139.4261  153.0954 H   0  0  0  0  0  0  0  0  0  0  0  0
  146.5753  137.8582  152.3304 H   0  0  0  0  0  0  0  0  0  0  0  0
  144.2773  138.4612  153.7153 H   0  0  0  0  0  0  0  0  0  0  0  0
  144.9601  136.8357  153.7784 H   0  0  0  0  0  0  0  0  0  0  0  0
  144.8386  138.7136  155.8651 H   0  0  0  0  0  0  0  0  0  0  0  0
  147.2922  137.8208  156.4767 H   0  0  0  0  0  0  0  0  0  0  0  0
  146.8794  139.4221  155.8813 H   0  0  0  0  0  0  0  0  0  0  0  0
  145.2419  137.1125  155.8903 H   0  0  0  0  0  0  0  0  0  0  0  0
  1  2  1  0  0  0  0
  1 25  1  0  0  0  0
  2 24  1  0  0  0  0
  2  3  1  0  0  0  0
  2 21  1  0  0  0  0
  3  4  1  0  0  0  0
  3 26  1  0  0  0  0
  3 27  1  0  0  0  0
  4 20  1  0  0  0  0
  4  5  1  0  0  0  0
  5  6  1  0  0  0  0
  5 28  1  0  0  0  0
  5 29  1  0  0  0  0
  6  7  1  0  0  0  0
  6 30  1  0  0  0  0
  6 31  1  0  0  0  0
  7  8  1  0  0  0  0
  7 19  1  0  0  0  0
  7 32  1  0  0  0  0
  8  9  1  0  0  0  0
  9 18  1  0  0  0  0
  9 10  2  0  0  0  0
 10 11  1  0  0  0  0
 10 33  1  0  0  0  0
 11 12  2  0  0  0  0
 11 34  1  0  0  0  0
 12 13  1  0  0  0  0
 12 35  1  0  0  0  0
 13 14  1  0  0  0  0
 13 18  2  0  0  0  0
 14 15  1  0  0  0  0
 14 16  1  0  0  0  0
 14 17  1  0  0  0  0
 18 36  1  0  0  0  0
 19 20  1  0  0  0  0
 19 37  1  0  0  0  0
 19 38  1  0  0  0  0
 20 39  1  0  0  0  0
 20 40  1  0  0  0  0
 21 22  1  0  0  0  0
 21 41  1  0  0  0  0
 21 42  1  0  0  0  0
 22 23  1  0  0  0  0
 22 43  1  0  0  0  0
 22 44  1  0  0  0  0
 23 24  1  0  0  0  0
 23 45  1  0  0  0  0
 23 48  1  0  0  0  0
 24 46  1  0  0  0  0
 24 47  1  0  0  0  0
M  CHG  1  23   1
M  END
> <s_m_source_file>
AV-unprocessed.smi

> <i_m_source_file_index>
67

> <i_lp_mmshare_version>
43012

> <i_f3d_flags>
0

> <s_epik_input>
W0NIMl0xW05IXVtDSDJdW0NIMl1bQ0BAXTEoW09IXSlbQ0gyXU4yW0NIMl1bQ0gyXVtDSF0oW0NIMl1bQ0gyXTIpT2MzW2NIXVtjSF1bY0hdYyhDKEYpKEYpRilbY0hdMw==

> <s_epik_cmdline>
J2VwaWtfcHl0aG9uJywgJy1waCcsICc3LjAnLCAnLXRuJywgJzgnLCAnLW1hJywgJzIwMCcsICctbWV0YWxfYmluZGluZycsICctaW1hZScsICc8aW5maWxlLm1hZT4nLCAnLW9tYWUnLCAnPG91dGZpbGUubWFlPic=

> <r_lp_tautomer_probability>
1

> <r_epik_Ionization_Penalty>
1.18002

> <r_epik_Ionization_Penalty_Charging>
0.00399663

> <r_epik_Ionization_Penalty_Neutral>
1.17602

> <r_epik_State_Penalty>
1.25421

> <r_epik_Charging_Adjusted_Penalty>
1.25821

> <i_epik_Tot_Q>
1

> <i_epik_Tot_abs_Q>
1

> <r_epik_Metal_State_Penalty>
1.25387

> <b_epik_Metal_Only>
0

> <s_lp_Force_Field>
OPLS_2005

> <r_lp_Energy>
63.3962

> <b_lp_Chiralities_Consistent>
1

> <s_lp_Variant>
AV-unprocessed.smi:67-5

> <Gold.Version>
5.8.1

> <Gold.Id.Protein>
6NUR|6NUR_protein|mol2

> <Gold.PLP.Fitness>
53.0705

> <Gold.PLP.PLP>
-48.1625

> <Gold.PLP.part.hbond>
-2.0000

> <Gold.PLP.part.metal>
0.0000

> <Gold.PLP.part.buried>
-5.4184

> <Gold.PLP.part.nonpolar>
-41.3739

> <Gold.PLP.part.repulsive>
0.0752

> <Gold.PLP.ligand.clash>
0.0672

> <Gold.PLP.ligand.torsion>
0.7525

> <Gold.PLP.Chemscore.Hbond>
2.0000

> <Gold.PLP.Chemscore.CHOScore>
0.0000

> <Gold.PLP.Chemscore.Metal>
0.0000

> <Gold.Chemscore.Hbonds>
donor molecule, donor type, donor heavy atom, donor atom, acceptor molecule, acceptor atom, score
      L1  H     1    25       P1  7948  1.00
      P1  H  7997  8010       L1     8  1.00

> <Gold.PLP.Chemscore.Internal.Correction>
0.4802

> <Gold.Rescore>
     Score         DG    S(hbond)    S(metal)    S(lipo)     H(rot)  DE(clash)    DE(int)     intcor
     17.39     -18.19       1.56        0.00     111.90       2.19       0.02       0.78       ----

> <Gold.Chemscore.Fitness>
17.3875

> <Gold.Chemscore.DG>
-18.1938

> <Gold.Chemscore.ZeroCoef>
-5.4800

> <Gold.Chemscore.Hbond>
1.5645

> <Gold.Chemscore.Metal>
0.0000

> <Gold.Chemscore.Lipo>
111.8955

> <Gold.Chemscore.Internal_Hbond>
0.0000

> <Gold.Chemscore.DEClash>
0.0226

> <Gold.Chemscore.DEInternal>
0.7838

> <Gold.Chemscore.Rot>
2.1887

> <Gold.Chemscore.Internal.Correction>
   9.000000E+99

> <Gold.Chemscore.Hbonds>
donor molecule, donor type, donor heavy atom, donor atom, acceptor molecule, acceptor atom, score
      L1  H     1    25       P1  7948  1.00
      P1  H  7997  8010       L1     8  0.26

> <Gold.Chemscore.Hbond.Weighted>
-5.2253

> <Gold.Chemscore.Metal.Weighted>
-0.0000

> <Gold.Chemscore.Lipo.Weighted>
-13.0918

> <Gold.Chemscore.Internal_Hbond.Weighted>
0.0000

> <Gold.Chemscore.DEClash.Weighted>
0.0226

> <Gold.Chemscore.DEInternal.Weighted>
0.7838

> <Gold.Chemscore.Rot.Weighted>
5.6032

> <Gold.Chemscore.Internal.Correction.Weighted>
   9.000000E+99

> <Gold.Protein.RotatedTorsions>
[ 6907 6896 6895 6894 ] final   16.46 input  -60.11 | X-H torsion
[ 7974 7965 7964 7962 ] final  104.36 input  175.53 | X-H torsion
[ 8008 7997 7996 7995 ] final   30.90 input   59.86 | X-H torsion
[ 10167 10162 10161 10158 ] final  -52.41 input  -65.29 | X-H torsion
[ 10718 10713 10712 10709 ] final  133.74 input   66.30 | X-H torsion
[ 10763 10752 10751 10750 ] final  138.75 input  -60.55 | X-H torsion
[ 11005 11000 10999 10996 ] final  -52.00 input  -57.11 | X-H torsion

> <Gold.Protein.ActiveResidues>
 VAL166  LYS551  ARG553  GLY616  TRP617  ASP618  TYR619  PRO620  LYS621  CYS622 
 ASP623  PHE694  ASN695  SER759  ASP760  ASP761  ALA762  ILE779  LEU786  VAL792 
 PHE793  MET794  SER795  GLU796  ALA797  LYS798  CYS799  TRP800  GLU811  SER814 

> <Gold.Protein.RotatedAtoms>
  151.8342  135.0611  160.0440 H   0  0  0  0  0  0  0  0  0  0  0  0  # atno 6907 bound_to 6896
  152.2857  133.5508  159.5534 H   0  0  0  0  0  0  0  0  0  0  0  0  # atno 6908 bound_to 6896
  150.7208  134.0416  159.3810 H   0  0  0  0  0  0  0  0  0  0  0  0  # atno 6909 bound_to 6896
  145.3338  139.2480  143.3646 H   0  0  0  0  0  0  0  0  0  0  0  0  # atno 7974 bound_to 7965
  155.0978  140.3226  155.4555 H   0  0  0  0  0  0  0  0  0  0  0  0  # atno 8008 bound_to 7997
  156.2725  140.2066  156.6051 H   0  0  0  0  0  0  0  0  0  0  0  0  # atno 8009 bound_to 7997
  154.6853  140.0522  157.0295 H   0  0  0  0  0  0  0  0  0  0  0  0  # atno 8010 bound_to 7997
  140.6539  143.2585  151.4644 H   0  0  0  0  0  0  0  0  0  0  0  0  # atno 10167 bound_to 10162
  157.4742  131.1082  150.9764 H   0  0  0  0  0  0  0  0  0  0  0  0  # atno 10718 bound_to 10713
  153.8947  135.3029  155.3448 H   0  0  0  0  0  0  0  0  0  0  0  0  # atno 10763 bound_to 10752
  154.7699  135.4891  153.9631 H   0  0  0  0  0  0  0  0  0  0  0  0  # atno 10764 bound_to 10752
  153.1278  135.6797  153.9327 H   0  0  0  0  0  0  0  0  0  0  0  0  # atno 10765 bound_to 10752
  141.0901  133.6634  156.3960 H   0  0  0  0  0  0  0  0  0  0  0  0  # atno 11005 bound_to 11000
  146.3035  140.3921  142.8695 LP  0  0  0  0  0  0  0  0  0  0  0  0  # atno 17320 bound_to 7965
  144.8843  140.7442  143.5966 LP  0  0  0  0  0  0  0  0  0  0  0  0  # atno 17321 bound_to 7965
  139.5758  144.1823  152.1901 LP  0  0  0  0  0  0  0  0  0  0  0  0  # atno 17342 bound_to 10162
  140.1133  144.5438  150.6910 LP  0  0  0  0  0  0  0  0  0  0  0  0  # atno 17343 bound_to 10162
  157.0519  130.5790  149.5371 LP  0  0  0  0  0  0  0  0  0  0  0  0  # atno 17370 bound_to 10713
  156.0088  130.5178  150.7921 LP  0  0  0  0  0  0  0  0  0  0  0  0  # atno 17371 bound_to 10713
  140.5272  134.6248  157.5338 LP  0  0  0  0  0  0  0  0  0  0  0  0  # atno 17394 bound_to 11000
  139.9725  134.7269  156.0013 LP  0  0  0  0  0  0  0  0  0  0  0  0  # atno 17395 bound_to 11000

$$$$
