AV-unprocessed.smi:823|AV-procd|sdf|3846|dock3
  -GOLD-   22720 1293D 1   1.00000     0.00000
 Structure written by MMmdl.
 46 47  0  0  0  0  0  0  0  0  1 V2000
  151.8395  145.1608  159.6362 C   0  0  0  0  0  0  0  0  0  0  0  0
  152.4804  143.7825  159.4421 C   0  0  2  0  0  0  0  0  0  0  0  0
  151.7453  142.9478  158.3750 C   0  0  0  0  0  0  0  0  0  0  0  0
  152.3084  141.6019  158.3001 N   0  0  0  0  0  0  0  0  0  0  0  0
  151.9089  140.8357  157.1835 C   0  0  0  0  0  0  0  0  0  0  0  0
  150.7816  141.2226  156.4205 C   0  0  0  0  0  0  0  0  0  0  0  0
  150.3987  140.4407  155.3141 C   0  0  0  0  0  0  0  0  0  0  0  0
  151.1481  139.2875  154.9967 C   0  0  0  0  0  0  0  0  0  0  0  0
  150.8025  138.3898  153.8156 C   0  0  0  0  0  0  0  0  0  0  0  0
  150.0413  137.1955  154.1664 N   0  0  0  0  0  0  0  0  0  0  0  0
  150.4828  136.2097  154.9618 C   0  0  0  0  0  0  0  0  0  0  0  0
  151.6134  136.1917  155.4513 O   0  0  0  0  0  0  0  0  0  0  0  0
  149.4887  135.0740  155.2493 C   0  0  1  0  0  0  0  0  0  0  0  0
  148.2454  135.6704  155.9303 C   0  0  0  0  0  0  0  0  0  0  0  0
  149.0660  134.4423  154.0003 N   0  0  0  0  0  0  0  0  0  0  0  0
  149.0494  133.1201  153.7731 C   0  0  0  0  0  0  0  0  0  0  0  0
  148.6420  132.8227  152.5390 N   0  0  0  0  0  0  0  0  0  0  0  0
  149.3730  132.2663  154.5967 O   0  0  0  0  0  0  0  0  0  0  0  0
  152.2619  138.9879  155.8059 C   0  0  0  0  0  0  0  0  0  0  0  0
  152.6350  139.7354  156.8656 N   0  0  0  0  0  0  0  0  0  0  0  0
  152.3811  140.9331  159.5976 C   0  0  0  0  0  0  0  0  0  0  0  0
  153.0943  141.8291  160.6228 C   0  0  0  0  0  0  0  0  0  0  0  0
  152.4425  143.0932  160.6886 O   0  0  0  0  0  0  0  0  0  0  0  0
  151.8565  145.7355  158.7099 H   0  0  0  0  0  0  0  0  0  0  0  0
  152.3734  145.7355  160.3934 H   0  0  0  0  0  0  0  0  0  0  0  0
  150.8010  145.0715  159.9565 H   0  0  0  0  0  0  0  0  0  0  0  0
  153.5208  143.9235  159.1435 H   0  0  0  0  0  0  0  0  0  0  0  0
  150.6860  142.8691  158.6233 H   0  0  0  0  0  0  0  0  0  0  0  0
  151.8077  143.4630  157.4175 H   0  0  0  0  0  0  0  0  0  0  0  0
  150.2178  142.1117  156.6595 H   0  0  0  0  0  0  0  0  0  0  0  0
  149.5428  140.7324  154.7236 H   0  0  0  0  0  0  0  0  0  0  0  0
  150.2127  138.9718  153.1075 H   0  0  0  0  0  0  0  0  0  0  0  0
  151.7164  138.1019  153.2931 H   0  0  0  0  0  0  0  0  0  0  0  0
  149.1006  137.1296  153.8051 H   0  0  0  0  0  0  0  0  0  0  0  0
  149.9420  134.3284  155.9058 H   0  0  0  0  0  0  0  0  0  0  0  0
  148.5058  136.1662  156.8663 H   0  0  0  0  0  0  0  0  0  0  0  0
  147.5213  134.8906  156.1681 H   0  0  0  0  0  0  0  0  0  0  0  0
  147.7438  136.4020  155.2946 H   0  0  0  0  0  0  0  0  0  0  0  0
  148.7869  135.0594  153.2520 H   0  0  0  0  0  0  0  0  0  0  0  0
  148.5787  131.8599  152.2426 H   0  0  0  0  0  0  0  0  0  0  0  0
  148.3913  133.5674  151.9048 H   0  0  0  0  0  0  0  0  0  0  0  0
  152.8731  138.1216  155.5993 H   0  0  0  0  0  0  0  0  0  0  0  0
  151.3720  140.7025  159.9423 H   0  0  0  0  0  0  0  0  0  0  0  0
  152.9199  139.9890  159.5068 H   0  0  0  0  0  0  0  0  0  0  0  0
  153.0688  141.3649  161.6086 H   0  0  0  0  0  0  0  0  0  0  0  0
  154.1452  141.9612  160.3603 H   0  0  0  0  0  0  0  0  0  0  0  0
  1  2  1  0  0  0  0
  1 24  1  0  0  0  0
  1 25  1  0  0  0  0
  1 26  1  0  0  0  0
  2 23  1  0  0  0  0
  2  3  1  0  0  0  0
  2 27  1  0  0  0  0
  3  4  1  0  0  0  0
  3 28  1  0  0  0  0
  3 29  1  0  0  0  0
  4  5  1  0  0  0  0
  4 21  1  0  0  0  0
  5 20  1  0  0  0  0
  5  6  2  0  0  0  0
  6  7  1  0  0  0  0
  6 30  1  0  0  0  0
  7  8  2  0  0  0  0
  7 31  1  0  0  0  0
  8  9  1  0  0  0  0
  8 19  1  0  0  0  0
  9 10  1  0  0  0  0
  9 32  1  0  0  0  0
  9 33  1  0  0  0  0
 10 11  1  0  0  0  0
 10 34  1  0  0  0  0
 11 12  2  0  0  0  0
 11 13  1  0  0  0  0
 13 14  1  0  0  0  0
 13 15  1  0  0  0  0
 13 35  1  0  0  0  0
 14 36  1  0  0  0  0
 14 37  1  0  0  0  0
 14 38  1  0  0  0  0
 15 16  1  0  0  0  0
 15 39  1  0  0  0  0
 16 17  1  0  0  0  0
 16 18  2  0  0  0  0
 17 40  1  0  0  0  0
 17 41  1  0  0  0  0
 19 20  2  0  0  0  0
 19 42  1  0  0  0  0
 21 22  1  0  0  0  0
 21 43  1  0  0  0  0
 21 44  1  0  0  0  0
 22 23  1  0  0  0  0
 22 45  1  0  0  0  0
 22 46  1  0  0  0  0
M  END
> <s_m_source_file>
AV-unprocessed.smi

> <i_m_source_file_index>
823

> <i_lp_mmshare_version>
43012

> <i_f3d_flags>
0

> <s_epik_input>
W0NIM11bQ0BASF0xW0NIMl1OKFtDSDJdW0NIMl1PMSljMltjSF1bY0hdYyhbY0hdbjIpW0NIMl1bTkhdQyg9TylbQ0BIXShbQ0gzXSlbTkhdQyg9TylbTkgyXQ==

> <s_epik_cmdline>
J2VwaWtfcHl0aG9uJywgJy1waCcsICc3LjAnLCAnLXRuJywgJzgnLCAnLW1hJywgJzIwMCcsICctbWV0YWxfYmluZGluZycsICctaW1hZScsICc8aW5maWxlLm1hZT4nLCAnLW9tYWUnLCAnPG91dGZpbGUubWFlPic=

> <r_lp_tautomer_probability>
1

> <r_epik_Ionization_Penalty>
0.00555043

> <r_epik_Ionization_Penalty_Charging>
0

> <r_epik_Ionization_Penalty_Neutral>
0.00555043

> <r_epik_State_Penalty>
0.00402575

> <r_epik_Charging_Adjusted_Penalty>
0.00402575

> <i_epik_Tot_Q>
0

> <i_epik_Tot_abs_Q>
0

> <r_epik_Metal_State_Penalty>
-0

> <b_epik_Metal_Only>
0

> <s_lp_Force_Field>
OPLS_2005

> <r_lp_Energy>
9.55746

> <b_lp_Chiralities_Consistent>
1

> <s_lp_Variant>
AV-unprocessed.smi:823-3

> <Gold.Version>
5.8.1

> <Gold.Id.Protein>
6NUR|6NUR_protein|mol2

> <Gold.PLP.Fitness>
55.5924

> <Gold.PLP.PLP>
-45.8383

> <Gold.PLP.part.hbond>
-5.6572

> <Gold.PLP.part.metal>
0.0000

> <Gold.PLP.part.buried>
-4.5248

> <Gold.PLP.part.nonpolar>
-34.6594

> <Gold.PLP.part.repulsive>
0.2048

> <Gold.PLP.ligand.clash>
0.0000

> <Gold.PLP.ligand.torsion>
0.6369

> <Gold.PLP.Chemscore.Hbond>
3.5639

> <Gold.PLP.Chemscore.CHOScore>
0.0000

> <Gold.PLP.Chemscore.Metal>
0.0000

> <Gold.Chemscore.Hbonds>
donor molecule, donor type, donor heavy atom, donor atom, acceptor molecule, acceptor atom, score
      L1  H    10    34       P1  7948  0.20
      L1  H    15    39       P1  7948  1.00
      L1  H    17    40       P1 10747  0.32
      P1  H  7997  8008       L1    20  1.00
      P1  H 10752 10764       L1    12  1.00

> <Gold.PLP.Chemscore.Internal.Correction>
0.3360

> <Gold.Rescore>
     Score         DG    S(hbond)    S(metal)    S(lipo)     H(rot)  DE(clash)    DE(int)     intcor
     18.32     -20.56       3.11        0.00      97.28       2.62       0.32       1.92       ----

> <Gold.Chemscore.Fitness>
18.3179

> <Gold.Chemscore.DG>
-20.5589

> <Gold.Chemscore.ZeroCoef>
-5.4800

> <Gold.Chemscore.Hbond>
3.1123

> <Gold.Chemscore.Metal>
0.0000

> <Gold.Chemscore.Lipo>
97.2798

> <Gold.Chemscore.Internal_Hbond>
0.0000

> <Gold.Chemscore.DEClash>
0.3216

> <Gold.Chemscore.DEInternal>
1.9194

> <Gold.Chemscore.Rot>
2.6163

> <Gold.Chemscore.Internal.Correction>
   9.000000E+99

> <Gold.Chemscore.Hbonds>
donor molecule, donor type, donor heavy atom, donor atom, acceptor molecule, acceptor atom, score
      L1  H    10    34       P1  7948  0.20
      L1  H    15    39       P1  7948  0.49
      L1  H    17    40       P1 10747  0.32
      P1  H  7997  8008       L1    20  0.26
      P1  H 10752 10764       L1    12  1.00

> <Gold.Chemscore.Hbond.Weighted>
-10.3949

> <Gold.Chemscore.Metal.Weighted>
-0.0000

> <Gold.Chemscore.Lipo.Weighted>
-11.3817

> <Gold.Chemscore.Internal_Hbond.Weighted>
0.0000

> <Gold.Chemscore.DEClash.Weighted>
0.3216

> <Gold.Chemscore.DEInternal.Weighted>
1.9194

> <Gold.Chemscore.Rot.Weighted>
6.6978

> <Gold.Chemscore.Internal.Correction.Weighted>
   9.000000E+99

> <Gold.Protein.RotatedTorsions>
[ 6907 6896 6895 6894 ] final  -84.44 input  -60.11 | X-H torsion
[ 7974 7965 7964 7962 ] final  -40.94 input  175.53 | X-H torsion
[ 8008 7997 7996 7995 ] final  -47.35 input   59.86 | X-H torsion
[ 10167 10162 10161 10158 ] final  -52.48 input  -65.29 | X-H torsion
[ 10718 10713 10712 10709 ] final -151.39 input   66.30 | X-H torsion
[ 10763 10752 10751 10750 ] final  -42.85 input  -60.55 | X-H torsion
[ 11005 11000 10999 10996 ] final -156.04 input  -57.11 | X-H torsion

> <Gold.Protein.ActiveResidues>
 VAL166  LYS551  ARG553  GLY616  TRP617  ASP618  TYR619  PRO620  LYS621  CYS622 
 ASP623  PHE694  ASN695  SER759  ASP760  ASP761  ALA762  ILE779  LEU786  VAL792 
 PHE793  MET794  SER795  GLU796  ALA797  LYS798  CYS799  TRP800  GLU811  SER814 

> <Gold.Protein.RotatedAtoms>
  150.6876  134.3357  159.4846 H   0  0  0  0  0  0  0  0  0  0  0  0  # atno 6907 bound_to 6896
  152.1217  134.9198  160.0572 H   0  0  0  0  0  0  0  0  0  0  0  0  # atno 6908 bound_to 6896
  152.0402  133.3939  159.4370 H   0  0  0  0  0  0  0  0  0  0  0  0  # atno 6909 bound_to 6896
  146.0258  140.6794  142.9156 H   0  0  0  0  0  0  0  0  0  0  0  0  # atno 7974 bound_to 7965
  154.4016  140.1348  156.4161 H   0  0  0  0  0  0  0  0  0  0  0  0  # atno 8008 bound_to 7997
  155.7688  140.3484  155.5215 H   0  0  0  0  0  0  0  0  0  0  0  0  # atno 8009 bound_to 7997
  155.8788  140.0984  157.1490 H   0  0  0  0  0  0  0  0  0  0  0  0  # atno 8010 bound_to 7997
  140.6535  143.2582  151.4654 H   0  0  0  0  0  0  0  0  0  0  0  0  # atno 10167 bound_to 10162
  156.4586  130.8202  151.2433 H   0  0  0  0  0  0  0  0  0  0  0  0  # atno 10718 bound_to 10713
  153.9858  135.6711  153.4752 H   0  0  0  0  0  0  0  0  0  0  0  0  # atno 10763 bound_to 10752
  153.0727  135.4965  154.8336 H   0  0  0  0  0  0  0  0  0  0  0  0  # atno 10764 bound_to 10752
  154.7138  135.3103  154.9118 H   0  0  0  0  0  0  0  0  0  0  0  0  # atno 10765 bound_to 10752
  140.6800  134.4155  157.5227 H   0  0  0  0  0  0  0  0  0  0  0  0  # atno 11005 bound_to 11000
  144.7009  140.3647  143.7157 LP  0  0  0  0  0  0  0  0  0  0  0  0  # atno 17320 bound_to 7965
  145.7121  139.1687  143.2533 LP  0  0  0  0  0  0  0  0  0  0  0  0  # atno 17321 bound_to 7965
  139.5754  144.1832  152.1895 LP  0  0  0  0  0  0  0  0  0  0  0  0  # atno 17342 bound_to 10162
  140.1141  144.5431  150.6905 LP  0  0  0  0  0  0  0  0  0  0  0  0  # atno 17343 bound_to 10162
  157.7499  131.0114  150.3346 LP  0  0  0  0  0  0  0  0  0  0  0  0  # atno 17370 bound_to 10713
  156.3741  130.3868  149.7153 LP  0  0  0  0  0  0  0  0  0  0  0  0  # atno 17371 bound_to 10713
  139.8955  134.8682  156.2130 LP  0  0  0  0  0  0  0  0  0  0  0  0  # atno 17394 bound_to 11000
  141.0325  133.6981  156.1455 LP  0  0  0  0  0  0  0  0  0  0  0  0  # atno 17395 bound_to 11000

$$$$
