AV-unprocessed.smi:1288|AV-procd|sdf|5381|dock10
  -GOLD-   22720 4533D 1   1.00000     0.00000
 Structure written by MMmdl.
 42 44  0  0  0  0  0  0  0  0  1 V2000
  151.0005  139.6164  155.5391 C   0  0  0  0  0  0  0  0  0  0  0  0
  151.3235  140.6735  156.5469 C   0  0  0  0  0  0  0  0  0  0  0  0
  150.9014  141.9315  156.4181 N   0  0  0  0  0  0  0  0  0  0  0  0
  151.4263  142.5433  157.5401 C   0  0  0  0  0  0  0  0  0  0  0  0
  151.3344  143.8821  157.9837 C   0  0  0  0  0  0  0  0  0  0  0  0
  151.9629  144.2821  159.1810 C   0  0  0  0  0  0  0  0  0  0  0  0
  152.6917  143.3518  159.9501 C   0  0  0  0  0  0  0  0  0  0  0  0
  152.7954  142.0128  159.5267 C   0  0  0  0  0  0  0  0  0  0  0  0
  152.1657  141.6182  158.3309 C   0  0  0  0  0  0  0  0  0  0  0  0
  152.0697  140.4094  157.6476 N   0  0  0  0  0  0  0  0  0  0  0  0
  152.6592  139.1376  158.0455 C   0  0  0  0  0  0  0  0  0  0  0  0
  151.8469  138.4178  159.1414 C   0  0  2  0  0  0  0  0  0  0  0  0
  152.6643  137.4393  159.7538 O   0  0  0  0  0  0  0  0  0  0  0  0
  150.6020  137.7230  158.5674 C   0  0  0  0  0  0  0  0  0  0  0  0
  150.0982  136.8041  159.5234 O   0  0  0  0  0  0  0  0  0  0  0  0
  148.7248  136.5097  159.3317 C   0  0  0  0  0  0  0  0  0  0  0  0
  148.1528  135.7482  160.5113 C   0  0  0  0  0  0  0  0  0  0  0  0
  147.9532  136.4036  161.7448 C   0  0  0  0  0  0  0  0  0  0  0  0
  147.4229  135.6996  162.8436 C   0  0  0  0  0  0  0  0  0  0  0  0
  147.0888  134.3378  162.7129 C   0  0  0  0  0  0  0  0  0  0  0  0
  147.2839  133.6810  161.4826 C   0  0  0  0  0  0  0  0  0  0  0  0
  147.8140  134.3836  160.3825 C   0  0  0  0  0  0  0  0  0  0  0  0
  147.9956  133.7424  159.2030 F   0  0  0  0  0  0  0  0  0  0  0  0
  150.3763  140.0247  154.7436 H   0  0  0  0  0  0  0  0  0  0  0  0
  150.4607  138.7943  156.0084 H   0  0  0  0  0  0  0  0  0  0  0  0
  151.9157  139.2294  155.0908 H   0  0  0  0  0  0  0  0  0  0  0  0
  150.7786  144.6023  157.4016 H   0  0  0  0  0  0  0  0  0  0  0  0
  151.8854  145.3076  159.5111 H   0  0  0  0  0  0  0  0  0  0  0  0
  153.1705  143.6665  160.8658 H   0  0  0  0  0  0  0  0  0  0  0  0
  153.3502  141.2977  160.1156 H   0  0  0  0  0  0  0  0  0  0  0  0
  152.7498  138.5042  157.1627 H   0  0  0  0  0  0  0  0  0  0  0  0
  153.6784  139.3195  158.3890 H   0  0  0  0  0  0  0  0  0  0  0  0
  151.5414  139.1426  159.8965 H   0  0  0  0  0  0  0  0  0  0  0  0
  153.2937  137.8781  160.3058 H   0  0  0  0  0  0  0  0  0  0  0  0
  149.8267  138.4652  158.3698 H   0  0  0  0  0  0  0  0  0  0  0  0
  150.8267  137.2312  157.6190 H   0  0  0  0  0  0  0  0  0  0  0  0
  148.1586  137.4325  159.1956 H   0  0  0  0  0  0  0  0  0  0  0  0
  148.5949  135.9208  158.4221 H   0  0  0  0  0  0  0  0  0  0  0  0
  148.2050  137.4486  161.8523 H   0  0  0  0  0  0  0  0  0  0  0  0
  147.2724  136.2048  163.7863 H   0  0  0  0  0  0  0  0  0  0  0  0
  146.6820  133.7981  163.5554 H   0  0  0  0  0  0  0  0  0  0  0  0
  147.0263  132.6371  161.3817 H   0  0  0  0  0  0  0  0  0  0  0  0
  1  2  1  0  0  0  0
  1 24  1  0  0  0  0
  1 25  1  0  0  0  0
  1 26  1  0  0  0  0
  2 10  1  0  0  0  0
  2  3  2  0  0  0  0
  3  4  1  0  0  0  0
  4  9  2  0  0  0  0
  4  5  1  0  0  0  0
  5  6  2  0  0  0  0
  5 27  1  0  0  0  0
  6  7  1  0  0  0  0
  6 28  1  0  0  0  0
  7  8  2  0  0  0  0
  7 29  1  0  0  0  0
  8  9  1  0  0  0  0
  8 30  1  0  0  0  0
  9 10  1  0  0  0  0
 10 11  1  0  0  0  0
 11 12  1  0  0  0  0
 11 31  1  0  0  0  0
 11 32  1  0  0  0  0
 12 13  1  0  0  0  0
 12 14  1  0  0  0  0
 12 33  1  0  0  0  0
 13 34  1  0  0  0  0
 14 15  1  0  0  0  0
 14 35  1  0  0  0  0
 14 36  1  0  0  0  0
 15 16  1  0  0  0  0
 16 17  1  0  0  0  0
 16 37  1  0  0  0  0
 16 38  1  0  0  0  0
 17 22  1  0  0  0  0
 17 18  2  0  0  0  0
 18 19  1  0  0  0  0
 18 39  1  0  0  0  0
 19 20  2  0  0  0  0
 19 40  1  0  0  0  0
 20 21  1  0  0  0  0
 20 41  1  0  0  0  0
 21 22  2  0  0  0  0
 21 42  1  0  0  0  0
 22 23  1  0  0  0  0
M  END
> <s_m_source_file>
AV-unprocessed.smi

> <i_m_source_file_index>
1288

> <i_lp_mmshare_version>
43012

> <i_f3d_flags>
0

> <s_epik_input>
W2NIXTFbY0hdW2NIXVtjSF1jKGMxMiluKGMobjIpW0NIM10pW0NIMl1bQ0BIXShbT0hdKVtDSDJdT1tDSDJdYzNbY0hdW2NIXVtjSF1bY0hdYzNG

> <s_epik_cmdline>
J2VwaWtfcHl0aG9uJywgJy1waCcsICc3LjAnLCAnLXRuJywgJzgnLCAnLW1hJywgJzIwMCcsICctbWV0YWxfYmluZGluZycsICctaW1hZScsICc8aW5maWxlLm1hZT4nLCAnLW9tYWUnLCAnPG91dGZpbGUubWFlPic=

> <r_epik_Ionization_Penalty>
0.132603

> <r_epik_Ionization_Penalty_Charging>
0

> <r_epik_Ionization_Penalty_Neutral>
0.132603

> <r_epik_State_Penalty>
0.121982

> <r_epik_Charging_Adjusted_Penalty>
0.121982

> <i_epik_Tot_Q>
0

> <i_epik_Tot_abs_Q>
0

> <r_epik_Metal_State_Penalty>
0.000135431

> <b_epik_Metal_Only>
0

> <s_lp_Force_Field>
OPLS_2005

> <r_lp_Energy>
16.1737

> <b_lp_Chiralities_Consistent>
1

> <s_lp_Variant>
AV-unprocessed.smi:1288-1

> <Gold.Version>
5.8.1

> <Gold.Id.Protein>
6NUR|6NUR_protein|mol2

> <Gold.PLP.Fitness>
54.6592

> <Gold.PLP.PLP>
-53.1253

> <Gold.PLP.part.hbond>
-1.0000

> <Gold.PLP.part.metal>
0.0000

> <Gold.PLP.part.buried>
-6.3857

> <Gold.PLP.part.nonpolar>
-46.0793

> <Gold.PLP.part.repulsive>
0.0780

> <Gold.PLP.ligand.clash>
0.0000

> <Gold.PLP.ligand.torsion>
0.7985

> <Gold.PLP.Chemscore.Hbond>
1.0000

> <Gold.PLP.Chemscore.CHOScore>
0.0000

> <Gold.PLP.Chemscore.Metal>
0.0000

> <Gold.Chemscore.Hbonds>
donor molecule, donor type, donor heavy atom, donor atom, acceptor molecule, acceptor atom, score
      P1  H  6896  6908       L1    15  1.00

> <Gold.PLP.Chemscore.Internal.Correction>
0.1308

> <Gold.Rescore>
     Score         DG    S(hbond)    S(metal)    S(lipo)     H(rot)  DE(clash)    DE(int)     intcor
     17.87     -18.68       0.83        0.00     139.24       2.29       0.04       0.78       ----

> <Gold.Chemscore.Fitness>
17.8658

> <Gold.Chemscore.DG>
-18.6806

> <Gold.Chemscore.ZeroCoef>
-5.4800

> <Gold.Chemscore.Hbond>
0.8271

> <Gold.Chemscore.Metal>
0.0000

> <Gold.Chemscore.Lipo>
139.2394

> <Gold.Chemscore.Internal_Hbond>
0.0000

> <Gold.Chemscore.DEClash>
0.0392

> <Gold.Chemscore.DEInternal>
0.7756

> <Gold.Chemscore.Rot>
2.2863

> <Gold.Chemscore.Internal.Correction>
   9.000000E+99

> <Gold.Chemscore.Hbonds>
donor molecule, donor type, donor heavy atom, donor atom, acceptor molecule, acceptor atom, score
      P1  H  6896  6908       L1    15  0.41

> <Gold.Chemscore.Hbond.Weighted>
-2.7626

> <Gold.Chemscore.Metal.Weighted>
-0.0000

> <Gold.Chemscore.Lipo.Weighted>
-16.2910

> <Gold.Chemscore.Internal_Hbond.Weighted>
0.0000

> <Gold.Chemscore.DEClash.Weighted>
0.0392

> <Gold.Chemscore.DEInternal.Weighted>
0.7756

> <Gold.Chemscore.Rot.Weighted>
5.8530

> <Gold.Chemscore.Internal.Correction.Weighted>
   9.000000E+99

> <Gold.Protein.RotatedTorsions>
[ 6907 6896 6895 6894 ] final -159.62 input  -60.11 | X-H torsion
[ 7974 7965 7964 7962 ] final  -92.20 input  175.53 | X-H torsion
[ 8008 7997 7996 7995 ] final   25.38 input   59.86 | X-H torsion
[ 10167 10162 10161 10158 ] final -174.75 input  -65.29 | X-H torsion
[ 10718 10713 10712 10709 ] final  -47.53 input   66.30 | X-H torsion
[ 10763 10752 10751 10750 ] final  -82.36 input  -60.55 | X-H torsion
[ 11005 11000 10999 10996 ] final   96.43 input  -57.11 | X-H torsion

> <Gold.Protein.ActiveResidues>
 VAL166  LYS551  ARG553  GLY616  TRP617  ASP618  TYR619  PRO620  LYS621  CYS622 
 ASP623  PHE694  ASN695  SER759  ASP760  ASP761  ALA762  ILE779  LEU786  VAL792 
 PHE793  MET794  SER795  GLU796  ALA797  LYS798  CYS799  TRP800  GLU811  SER814 

> <Gold.Protein.RotatedAtoms>
  151.3364  133.3980  159.2666 H   0  0  0  0  0  0  0  0  0  0  0  0  # atno 6907 bound_to 6896
  150.9913  134.9248  159.7911 H   0  0  0  0  0  0  0  0  0  0  0  0  # atno 6908 bound_to 6896
  152.5248  134.3329  159.9242 H   0  0  0  0  0  0  0  0  0  0  0  0  # atno 6909 bound_to 6896
  145.4029  140.9539  143.2277 H   0  0  0  0  0  0  0  0  0  0  0  0  # atno 7974 bound_to 7965
  155.0108  140.3136  155.4830 H   0  0  0  0  0  0  0  0  0  0  0  0  # atno 8008 bound_to 7997
  156.2909  140.2215  156.5163 H   0  0  0  0  0  0  0  0  0  0  0  0  # atno 8009 bound_to 7997
  154.7536  140.0464  157.0902 H   0  0  0  0  0  0  0  0  0  0  0  0  # atno 8010 bound_to 7997
  139.5617  144.1853  152.1249 H   0  0  0  0  0  0  0  0  0  0  0  0  # atno 10167 bound_to 10162
  156.2076  130.4159  149.9158 H   0  0  0  0  0  0  0  0  0  0  0  0  # atno 10718 bound_to 10713
  154.5748  135.5594  153.7129 H   0  0  0  0  0  0  0  0  0  0  0  0  # atno 10763 bound_to 10752
  153.0061  135.6305  154.2064 H   0  0  0  0  0  0  0  0  0  0  0  0  # atno 10764 bound_to 10752
  154.2005  135.2878  155.2972 H   0  0  0  0  0  0  0  0  0  0  0  0  # atno 10765 bound_to 10752
  139.8781  134.8950  156.4158 H   0  0  0  0  0  0  0  0  0  0  0  0  # atno 11005 bound_to 11000
  144.8361  139.5548  143.6921 LP  0  0  0  0  0  0  0  0  0  0  0  0  # atno 17320 bound_to 7965
  146.2743  139.6712  142.9274 LP  0  0  0  0  0  0  0  0  0  0  0  0  # atno 17321 bound_to 7965
  140.1368  144.5238  150.6768 LP  0  0  0  0  0  0  0  0  0  0  0  0  # atno 17342 bound_to 10162
  140.6897  143.2369  151.5164 LP  0  0  0  0  0  0  0  0  0  0  0  0  # atno 17343 bound_to 10162
  156.6847  130.8872  151.3580 LP  0  0  0  0  0  0  0  0  0  0  0  0  # atno 17370 bound_to 10713
  157.7021  130.9344  150.0816 LP  0  0  0  0  0  0  0  0  0  0  0  0  # atno 17371 bound_to 10713
  140.9168  133.7672  155.9858 LP  0  0  0  0  0  0  0  0  0  0  0  0  # atno 17394 bound_to 11000
  140.8484  134.2983  157.5285 LP  0  0  0  0  0  0  0  0  0  0  0  0  # atno 17395 bound_to 11000

$$$$
