AV-unprocessed.smi:114|AV-procd|sdf|1112|dock1
  -GOLD-   2262018233D 1   1.00000     0.00000
 Structure written by MMmdl.
 32 34  0  0  0  0  0  0  0  0  1 V2000
  145.4878  135.1209  150.2032 N   0  0  0  0  0  0  0  0  0  0  0  0
  145.5271  135.7402  151.3913 C   0  0  0  0  0  0  0  0  0  0  0  0
  145.0733  135.0769  152.4807 N   0  0  0  0  0  0  0  0  0  0  0  0
  145.0979  135.6587  153.6866 C   0  0  0  0  0  0  0  0  0  0  0  0
  144.6248  134.9223  154.7193 F   0  0  0  0  0  0  0  0  0  0  0  0
  145.5368  136.8865  153.9867 N   0  0  0  0  0  0  0  0  0  0  0  0
  145.9924  137.5571  152.8891 C   0  0  0  0  0  0  0  0  0  0  0  0
  146.0228  137.0559  151.5613 C   0  0  0  0  0  0  0  0  0  0  0  0
  146.5561  138.0122  150.7078 N   0  0  0  0  0  0  0  0  0  0  0  0
  146.8277  139.0197  151.4946 C   0  0  0  0  0  0  0  0  0  0  0  0
  146.5076  138.8331  152.8244 N   0  0  0  0  0  0  0  0  0  0  0  0
  146.6932  139.7554  153.9903 C   0  0  1  0  0  0  0  0  0  0  0  0
  147.8461  139.3665  154.6748 O   0  0  0  0  0  0  0  0  0  0  0  0
  148.9477  140.1501  154.2286 C   0  0  2  0  0  0  0  0  0  0  0  0
  150.1319  140.0614  155.2066 C   0  0  0  0  0  0  0  0  0  0  0  0
  150.8476  138.8642  154.9885 O   0  0  0  0  0  0  0  0  0  0  0  0
  148.3043  141.5340  154.0831 C   0  0  2  0  0  0  0  0  0  0  0  0
  148.2120  142.1733  155.3461 O   0  0  0  0  0  0  0  0  0  0  0  0
  146.9361  141.1937  153.4922 C   0  0  2  0  0  0  0  0  0  0  0  0
  145.9269  142.1039  153.8878 O   0  0  0  0  0  0  0  0  0  0  0  0
  145.7992  139.6208  154.6006 H   0  0  0  0  0  0  0  0  0  0  0  0
  149.2558  139.8109  153.2376 H   0  0  0  0  0  0  0  0  0  0  0  0
  148.8780  142.1793  153.4174 H   0  0  0  0  0  0  0  0  0  0  0  0
  147.0049  141.1957  152.4030 H   0  0  0  0  0  0  0  0  0  0  0  0
  145.8226  135.5969  149.3775 H   0  0  0  0  0  0  0  0  0  0  0  0
  145.1257  134.1807  150.1351 H   0  0  0  0  0  0  0  0  0  0  0  0
  147.2729  139.9291  151.1173 H   0  0  0  0  0  0  0  0  0  0  0  0
  150.8210  140.8895  155.0378 H   0  0  0  0  0  0  0  0  0  0  0  0
  149.7993  140.1188  156.2436 H   0  0  0  0  0  0  0  0  0  0  0  0
  150.7286  138.6033  154.0880 H   0  0  0  0  0  0  0  0  0  0  0  0
  148.2799  143.1064  155.2115 H   0  0  0  0  0  0  0  0  0  0  0  0
  145.1183  141.8538  153.4667 H   0  0  0  0  0  0  0  0  0  0  0  0
  1  2  1  0  0  0  0
  1 25  1  0  0  0  0
  1 26  1  0  0  0  0
  2  8  1  0  0  0  0
  2  3  2  0  0  0  0
  3  4  1  0  0  0  0
  4  5  1  0  0  0  0
  4  6  2  0  0  0  0
  6  7  1  0  0  0  0
  7 11  1  0  0  0  0
  7  8  2  0  0  0  0
  8  9  1  0  0  0  0
  9 10  2  0  0  0  0
 10 11  1  0  0  0  0
 10 27  1  0  0  0  0
 11 12  1  0  0  0  0
 12 21  1  0  0  0  0
 12 19  1  0  0  0  0
 12 13  1  0  0  0  0
 13 14  1  0  0  0  0
 14 22  1  0  0  0  0
 14 15  1  0  0  0  0
 14 17  1  0  0  0  0
 15 16  1  0  0  0  0
 15 28  1  0  0  0  0
 15 29  1  0  0  0  0
 16 30  1  0  0  0  0
 17 23  1  0  0  0  0
 17 18  1  0  0  0  0
 17 19  1  0  0  0  0
 18 31  1  0  0  0  0
 19 24  1  0  0  0  0
 19 20  1  0  0  0  0
 20 32  1  0  0  0  0
M  END
> <s_m_source_file>
AV-unprocessed.smi

> <i_m_source_file_index>
114

> <i_lp_mmshare_version>
43012

> <i_f3d_flags>
0

> <s_epik_input>
RmMobjEpbmMoW05IMl0pYyhjMTIpbltjSF1uMltDQEBIXTNPW0NASF0oW0NIMl1bT0hdKVtDQEBIXShbT0hdKVtDQEBIXTNbT0hd

> <s_epik_cmdline>
J2VwaWtfcHl0aG9uJywgJy1waCcsICc3LjAnLCAnLXRuJywgJzgnLCAnLW1hJywgJzIwMCcsICctbWV0YWxfYmluZGluZycsICctaW1hZScsICc8aW5maWxlLm1hZT4nLCAnLW9tYWUnLCAnPG91dGZpbGUubWFlPic=

> <r_lp_tautomer_probability>
1

> <r_epik_Ionization_Penalty>
1.13199e-05

> <r_epik_Ionization_Penalty_Charging>
0

> <r_epik_Ionization_Penalty_Neutral>
1.13199e-05

> <r_epik_State_Penalty>
-0

> <r_epik_Charging_Adjusted_Penalty>
0

> <i_epik_Tot_Q>
0

> <i_epik_Tot_abs_Q>
0

> <r_epik_Metal_State_Penalty>
-0

> <b_epik_Metal_Only>
0

> <s_epik_Chemistry_Notes>
This compound contains an acetal/aminal-like group ( X-CH(R)-Y where X, Y are N, S, or O) that may be acid/base labile, releasing an aldehyde.

> <s_lp_Force_Field>
OPLS_2005

> <r_lp_Energy>
39.4962

> <b_lp_Chiralities_Consistent>
1

> <s_lp_Variant>
AV-unprocessed.smi:114-6

> <Gold.Version>
5.8.1

> <Gold.Id.Protein>
6NUR|6NUR_protein|mol2

> <Gold.PLP.Fitness>
36.7612

> <Gold.PLP.PLP>
-27.3594

> <Gold.PLP.part.hbond>
-3.8579

> <Gold.PLP.part.metal>
0.0000

> <Gold.PLP.part.buried>
-1.5532

> <Gold.PLP.part.nonpolar>
-25.8623

> <Gold.PLP.part.repulsive>
2.3766

> <Gold.PLP.ligand.clash>
0.0000

> <Gold.PLP.ligand.torsion>
0.6309

> <Gold.PLP.Chemscore.Hbond>
2.8112

> <Gold.PLP.Chemscore.CHOScore>
0.7354

> <Gold.PLP.Chemscore.Metal>
0.0000

> <Gold.Chemscore.Hbonds>
donor molecule, donor type, donor heavy atom, donor atom, acceptor molecule, acceptor atom, score
      L1  H     1    25       P1  7921  0.56
      L1  H    18    31       P1  8028  1.00
      L1  H    20    32       P1 10175  0.21
      P1  H  7954  7966       L1     9  0.95
      L1  C    10    27       P1  7957  0.74

> <Gold.PLP.Chemscore.Internal.Correction>
0.0237

> <Gold.Rescore>
     Score         DG    S(hbond)    S(metal)    S(lipo)     H(rot)  DE(clash)    DE(int)     intcor
      3.05      -5.34       1.77        0.00      36.46       4.03       1.85       0.44       ----

> <Gold.Chemscore.Fitness>
3.0455

> <Gold.Chemscore.DG>
-5.3378

> <Gold.Chemscore.ZeroCoef>
-5.4800

> <Gold.Chemscore.Hbond>
1.7674

> <Gold.Chemscore.Metal>
0.0000

> <Gold.Chemscore.Lipo>
36.4575

> <Gold.Chemscore.Internal_Hbond>
0.0000

> <Gold.Chemscore.DEClash>
1.8544

> <Gold.Chemscore.DEInternal>
0.4379

> <Gold.Chemscore.Rot>
4.0277

> <Gold.Chemscore.Internal.Correction>
   9.000000E+99

> <Gold.Chemscore.Hbonds>
donor molecule, donor type, donor heavy atom, donor atom, acceptor molecule, acceptor atom, score
      L1  H     1    25       P1  7921  0.55
      L1  H    18    31       P1  8028  0.96
      P1  H  7954  7966       L1     9  0.21

> <Gold.Chemscore.Hbond.Weighted>
-5.9032

> <Gold.Chemscore.Metal.Weighted>
-0.0000

> <Gold.Chemscore.Lipo.Weighted>
-4.2655

> <Gold.Chemscore.Internal_Hbond.Weighted>
0.0000

> <Gold.Chemscore.DEClash.Weighted>
1.8544

> <Gold.Chemscore.DEInternal.Weighted>
0.4379

> <Gold.Chemscore.Rot.Weighted>
10.3110

> <Gold.Chemscore.Internal.Correction.Weighted>
   9.000000E+99

> <Gold.Protein.RotatedTorsions>
[ 6907 6896 6895 6894 ] final  -31.03 input  -60.11 | X-H torsion
[ 7974 7965 7964 7962 ] final   53.51 input  175.53 | X-H torsion
[ 8008 7997 7996 7995 ] final -107.10 input   59.86 | X-H torsion
[ 10167 10162 10161 10158 ] final  -46.51 input  -65.29 | X-H torsion
[ 10718 10713 10712 10709 ] final -121.74 input   66.30 | X-H torsion
[ 10763 10752 10751 10750 ] final -169.87 input  -60.55 | X-H torsion
[ 11005 11000 10999 10996 ] final  -31.18 input  -57.11 | X-H torsion

> <Gold.Protein.ActiveResidues>
 VAL166  LYS551  ARG553  GLY616  TRP617  ASP618  TYR619  PRO620  LYS621  CYS622 
 ASP623  PHE694  ASN695  SER759  ASP760  ASP761  ALA762  ILE779  LEU786  VAL792 
 PHE793  MET794  SER795  GLU796  ALA797  LYS798  CYS799  TRP800  GLU811  SER814 

> <Gold.Protein.RotatedAtoms>
  151.0976  134.9953  159.8432 H   0  0  0  0  0  0  0  0  0  0  0  0  # atno 6907 bound_to 6896
  152.5434  134.1989  159.8714 H   0  0  0  0  0  0  0  0  0  0  0  0  # atno 6908 bound_to 6896
  151.2030  133.4556  159.2630 H   0  0  0  0  0  0  0  0  0  0  0  0  # atno 6909 bound_to 6896
  145.9704  139.4143  143.0194 H   0  0  0  0  0  0  0  0  0  0  0  0  # atno 7974 bound_to 7965
  154.9243  140.0406  157.2014 H   0  0  0  0  0  0  0  0  0  0  0  0  # atno 8008 bound_to 7997
  154.8223  140.2885  155.5756 H   0  0  0  0  0  0  0  0  0  0  0  0  # atno 8009 bound_to 7997
  156.2981  140.2516  156.3133 H   0  0  0  0  0  0  0  0  0  0  0  0  # atno 8010 bound_to 7997
  140.6814  143.2827  151.3793 H   0  0  0  0  0  0  0  0  0  0  0  0  # atno 10167 bound_to 10162
  156.1362  130.6432  150.9700 H   0  0  0  0  0  0  0  0  0  0  0  0  # atno 10718 bound_to 10713
  154.6477  135.2907  155.0026 H   0  0  0  0  0  0  0  0  0  0  0  0  # atno 10763 bound_to 10752
  154.1130  135.6559  153.4892 H   0  0  0  0  0  0  0  0  0  0  0  0  # atno 10764 bound_to 10752
  153.0359  135.5269  154.7371 H   0  0  0  0  0  0  0  0  0  0  0  0  # atno 10765 bound_to 10752
  140.9446  133.7258  156.1127 H   0  0  0  0  0  0  0  0  0  0  0  0  # atno 11005 bound_to 11000
  145.7914  140.9812  143.1047 LP  0  0  0  0  0  0  0  0  0  0  0  0  # atno 17320 bound_to 7965
  144.6835  139.9688  143.7482 LP  0  0  0  0  0  0  0  0  0  0  0  0  # atno 17321 bound_to 7965
  139.6140  144.1041  152.2327 LP  0  0  0  0  0  0  0  0  0  0  0  0  # atno 17342 bound_to 10162
  140.0464  144.5967  150.7370 LP  0  0  0  0  0  0  0  0  0  0  0  0  # atno 17343 bound_to 10162
  157.6534  131.0893  150.8000 LP  0  0  0  0  0  0  0  0  0  0  0  0  # atno 17370 bound_to 10713
  156.8080  130.4943  149.5360 LP  0  0  0  0  0  0  0  0  0  0  0  0  # atno 17371 bound_to 10713
  140.7687  134.3857  157.5512 LP  0  0  0  0  0  0  0  0  0  0  0  0  # atno 17394 bound_to 11000
  139.8830  134.9008  156.2796 LP  0  0  0  0  0  0  0  0  0  0  0  0  # atno 17395 bound_to 11000

$$$$
