AV-unprocessed.smi:611|AV-procd|sdf|3061|dock5
  -GOLD-   2262023583D 1   1.00000     0.00000
 Structure written by MMmdl.
 41 42  0  0  0  0  0  0  0  0  1 V2000
  143.8715  131.8838  150.3472 C   0  0  0  0  0  0  0  0  0  0  0  0
  145.0297  132.5669  151.1122 C   0  0  0  0  0  0  0  0  0  0  0  0
  145.4918  131.6582  152.2662 C   0  0  0  0  0  0  0  0  0  0  0  0
  146.1792  132.7298  150.0898 C   0  0  0  0  0  0  0  0  0  0  0  0
  144.5929  133.9312  151.6743 C   0  0  0  0  0  0  0  0  0  0  0  0
  145.1815  135.0199  151.1611 N   0  0  0  0  0  0  0  0  0  0  0  0
  144.7318  136.2282  151.5624 C   0  0  0  0  0  0  0  0  0  0  0  0
  143.6548  136.3541  152.4719 C   0  0  0  0  0  0  0  0  0  0  0  0
  143.1118  137.5811  152.9374 N   0  0  0  0  0  0  0  0  0  0  0  0
  142.0613  137.7784  153.7576 C   0  0  0  0  0  0  0  0  0  0  0  0
  141.3880  136.8823  154.2611 O   0  0  0  0  0  0  0  0  0  0  0  0
  141.7721  139.0737  153.9791 N   0  0  0  0  0  0  0  0  0  0  0  0
  140.7046  139.6353  154.8113 C   0  0  0  0  0  0  0  0  0  0  0  0
  139.3253  139.3730  154.1755 C   0  0  0  0  0  0  0  0  0  0  0  0
  138.5797  140.7081  154.2095 C   0  0  0  0  0  0  0  0  0  0  0  0
  139.6829  141.7567  154.1174 C   0  0  0  0  0  0  0  0  0  0  0  0
  140.8272  141.1679  154.9422 C   0  0  0  0  0  0  0  0  0  0  0  0
  143.0727  135.1455  152.9020 C   0  0  0  0  0  0  0  0  0  0  0  0
  143.5330  133.9445  152.4934 N   0  0  0  0  0  0  0  0  0  0  0  0
  144.1908  130.9411  149.9016 H   0  0  0  0  0  0  0  0  0  0  0  0
  143.4997  132.5177  149.5414 H   0  0  0  0  0  0  0  0  0  0  0  0
  143.0295  131.6524  151.0009 H   0  0  0  0  0  0  0  0  0  0  0  0
  144.6904  131.4955  152.9878 H   0  0  0  0  0  0  0  0  0  0  0  0
  146.3335  132.0973  152.8029 H   0  0  0  0  0  0  0  0  0  0  0  0
  145.8088  130.6811  151.9005 H   0  0  0  0  0  0  0  0  0  0  0  0
  146.4593  131.7716  149.6507 H   0  0  0  0  0  0  0  0  0  0  0  0
  147.0797  133.1390  150.5492 H   0  0  0  0  0  0  0  0  0  0  0  0
  145.8935  133.3938  149.2730 H   0  0  0  0  0  0  0  0  0  0  0  0
  145.2319  137.0781  151.1253 H   0  0  0  0  0  0  0  0  0  0  0  0
  143.5304  138.4147  152.5509 H   0  0  0  0  0  0  0  0  0  0  0  0
  142.3525  139.7484  153.5022 H   0  0  0  0  0  0  0  0  0  0  0  0
  140.7303  139.1793  155.8026 H   0  0  0  0  0  0  0  0  0  0  0  0
  139.4339  139.0566  153.1368 H   0  0  0  0  0  0  0  0  0  0  0  0
  138.7753  138.5871  154.6940 H   0  0  0  0  0  0  0  0  0  0  0  0
  137.8439  140.7993  153.4099 H   0  0  0  0  0  0  0  0  0  0  0  0
  138.0539  140.8121  155.1594 H   0  0  0  0  0  0  0  0  0  0  0  0
  139.9977  141.8690  153.0789 H   0  0  0  0  0  0  0  0  0  0  0  0
  139.3652  142.7351  154.4784 H   0  0  0  0  0  0  0  0  0  0  0  0
  140.6958  141.4481  155.9881 H   0  0  0  0  0  0  0  0  0  0  0  0
  141.7960  141.5582  154.6273 H   0  0  0  0  0  0  0  0  0  0  0  0
  142.2301  135.1387  153.5781 H   0  0  0  0  0  0  0  0  0  0  0  0
  1  2  1  0  0  0  0
  1 20  1  0  0  0  0
  1 21  1  0  0  0  0
  1 22  1  0  0  0  0
  2  3  1  0  0  0  0
  2  4  1  0  0  0  0
  2  5  1  0  0  0  0
  3 23  1  0  0  0  0
  3 24  1  0  0  0  0
  3 25  1  0  0  0  0
  4 26  1  0  0  0  0
  4 27  1  0  0  0  0
  4 28  1  0  0  0  0
  5 19  1  0  0  0  0
  5  6  2  0  0  0  0
  6  7  1  0  0  0  0
  7  8  2  0  0  0  0
  7 29  1  0  0  0  0
  8  9  1  0  0  0  0
  8 18  1  0  0  0  0
  9 10  1  0  0  0  0
  9 30  1  0  0  0  0
 10 11  2  0  0  0  0
 10 12  1  0  0  0  0
 12 13  1  0  0  0  0
 12 31  1  0  0  0  0
 13 17  1  0  0  0  0
 13 14  1  0  0  0  0
 13 32  1  0  0  0  0
 14 15  1  0  0  0  0
 14 33  1  0  0  0  0
 14 34  1  0  0  0  0
 15 16  1  0  0  0  0
 15 35  1  0  0  0  0
 15 36  1  0  0  0  0
 16 17  1  0  0  0  0
 16 37  1  0  0  0  0
 16 38  1  0  0  0  0
 17 39  1  0  0  0  0
 17 40  1  0  0  0  0
 18 19  2  0  0  0  0
 18 41  1  0  0  0  0
M  END
> <s_m_source_file>
AV-unprocessed.smi

> <i_m_source_file_index>
611

> <i_lp_mmshare_version>
43012

> <i_f3d_flags>
0

> <s_epik_input>
W0NIM11DKFtDSDNdKShbQ0gzXSljMW5bY0hdYyhbY0hdbjEpW05IXUMoPU8pW05IXVtDSF0yW0NIMl1bQ0gyXVtDSDJdW0NIMl0y

> <s_epik_cmdline>
J2VwaWtfcHl0aG9uJywgJy1waCcsICc3LjAnLCAnLXRuJywgJzgnLCAnLW1hJywgJzIwMCcsICctbWV0YWxfYmluZGluZycsICctaW1hZScsICc8aW5maWxlLm1hZT4nLCAnLW9tYWUnLCAnPG91dGZpbGUubWFlPic=

> <r_lp_tautomer_probability>
1

> <r_epik_Ionization_Penalty>
2.83035e-05

> <r_epik_Ionization_Penalty_Charging>
0

> <r_epik_Ionization_Penalty_Neutral>
2.83035e-05

> <r_epik_State_Penalty>
-0

> <r_epik_Charging_Adjusted_Penalty>
0

> <i_epik_Tot_Q>
0

> <i_epik_Tot_abs_Q>
0

> <r_epik_Metal_State_Penalty>
-0

> <b_epik_Metal_Only>
0

> <s_lp_Force_Field>
OPLS_2005

> <r_lp_Energy>
27.5905

> <b_lp_Chiralities_Consistent>
1

> <s_lp_Variant>
AV-unprocessed.smi:611-1

> <Gold.Version>
5.8.1

> <Gold.Id.Protein>
6NUR|6NUR_protein|mol2

> <Gold.PLP.Fitness>
38.8762

> <Gold.PLP.PLP>
-31.0982

> <Gold.PLP.part.hbond>
-2.1379

> <Gold.PLP.part.metal>
0.0000

> <Gold.PLP.part.buried>
-4.5470

> <Gold.PLP.part.nonpolar>
-25.1317

> <Gold.PLP.part.repulsive>
0.4645

> <Gold.PLP.ligand.clash>
0.0000

> <Gold.PLP.ligand.torsion>
0.1374

> <Gold.PLP.Chemscore.Hbond>
1.9920

> <Gold.PLP.Chemscore.CHOScore>
0.6479

> <Gold.PLP.Chemscore.Metal>
0.0000

> <Gold.Chemscore.Hbonds>
donor molecule, donor type, donor heavy atom, donor atom, acceptor molecule, acceptor atom, score
      L1  H     9    30       P1 10175  0.99
      L1  H    12    31       P1 10175  1.00
      L1  C     7    29       P1 10171  0.74

> <Gold.PLP.Chemscore.Internal.Correction>
0.1331

> <Gold.Rescore>
     Score         DG    S(hbond)    S(metal)    S(lipo)     H(rot)  DE(clash)    DE(int)     intcor
     15.65     -17.35       1.85        0.00      73.99       1.16       0.17       1.53       ----

> <Gold.Chemscore.Fitness>
15.6545

> <Gold.Chemscore.DG>
-17.3464

> <Gold.Chemscore.ZeroCoef>
-5.4800

> <Gold.Chemscore.Hbond>
1.8531

> <Gold.Chemscore.Metal>
0.0000

> <Gold.Chemscore.Lipo>
73.9855

> <Gold.Chemscore.Internal_Hbond>
0.0000

> <Gold.Chemscore.DEClash>
0.1657

> <Gold.Chemscore.DEInternal>
1.5263

> <Gold.Chemscore.Rot>
1.1637

> <Gold.Chemscore.Internal.Correction>
   9.000000E+99

> <Gold.Chemscore.Hbonds>
donor molecule, donor type, donor heavy atom, donor atom, acceptor molecule, acceptor atom, score
      L1  H     9    30       P1 10175  0.89
      L1  H    12    31       P1 10175  0.97

> <Gold.Chemscore.Hbond.Weighted>
-6.1892

> <Gold.Chemscore.Metal.Weighted>
-0.0000

> <Gold.Chemscore.Lipo.Weighted>
-8.6563

> <Gold.Chemscore.Internal_Hbond.Weighted>
0.0000

> <Gold.Chemscore.DEClash.Weighted>
0.1657

> <Gold.Chemscore.DEInternal.Weighted>
1.5263

> <Gold.Chemscore.Rot.Weighted>
2.9790

> <Gold.Chemscore.Internal.Correction.Weighted>
   9.000000E+99

> <Gold.Protein.RotatedTorsions>
[ 6907 6896 6895 6894 ] final -104.40 input  -60.11 | X-H torsion
[ 7974 7965 7964 7962 ] final   93.92 input  175.53 | X-H torsion
[ 8008 7997 7996 7995 ] final   77.90 input   59.86 | X-H torsion
[ 10167 10162 10161 10158 ] final  -15.46 input  -65.29 | X-H torsion
[ 10718 10713 10712 10709 ] final   44.00 input   66.30 | X-H torsion
[ 10763 10752 10751 10750 ] final   87.27 input  -60.55 | X-H torsion
[ 11005 11000 10999 10996 ] final  -73.52 input  -57.11 | X-H torsion

> <Gold.Protein.ActiveResidues>
 VAL166  LYS551  ARG553  GLY616  TRP617  ASP618  TYR619  PRO620  LYS621  CYS622 
 ASP623  PHE694  ASN695  SER759  ASP760  ASP761  ALA762  ILE779  LEU786  VAL792 
 PHE793  MET794  SER795  GLU796  ALA797  LYS798  CYS799  TRP800  GLU811  SER814 

> <Gold.Protein.RotatedAtoms>
  150.7285  134.0283  159.3724 H   0  0  0  0  0  0  0  0  0  0  0  0  # atno 6907 bound_to 6896
  151.8251  135.0637  160.0439 H   0  0  0  0  0  0  0  0  0  0  0  0  # atno 6908 bound_to 6896
  152.2975  133.5586  159.5633 H   0  0  0  0  0  0  0  0  0  0  0  0  # atno 6909 bound_to 6896
  145.4724  139.2281  143.2927 H   0  0  0  0  0  0  0  0  0  0  0  0  # atno 7974 bound_to 7965
  155.8481  140.3459  155.5675 H   0  0  0  0  0  0  0  0  0  0  0  0  # atno 8008 bound_to 7997
  155.8067  140.0893  157.1946 H   0  0  0  0  0  0  0  0  0  0  0  0  # atno 8009 bound_to 7997
  154.4007  140.1455  156.3326 H   0  0  0  0  0  0  0  0  0  0  0  0  # atno 8010 bound_to 7997
  140.7218  143.5216  150.9627 H   0  0  0  0  0  0  0  0  0  0  0  0  # atno 10167 bound_to 10162
  157.4220  130.7975  149.7524 H   0  0  0  0  0  0  0  0  0  0  0  0  # atno 10718 bound_to 10713
  153.1652  135.4549  154.9827 H   0  0  0  0  0  0  0  0  0  0  0  0  # atno 10763 bound_to 10752
  154.7927  135.3226  154.7743 H   0  0  0  0  0  0  0  0  0  0  0  0  # atno 10764 bound_to 10752
  153.8227  135.6945  153.4879 H   0  0  0  0  0  0  0  0  0  0  0  0  # atno 10765 bound_to 10752
  141.1624  133.6881  156.7224 H   0  0  0  0  0  0  0  0  0  0  0  0  # atno 11005 bound_to 11000
  146.2389  140.5504  142.8943 LP  0  0  0  0  0  0  0  0  0  0  0  0  # atno 17320 bound_to 7965
  144.7937  140.6081  143.6524 LP  0  0  0  0  0  0  0  0  0  0  0  0  # atno 17321 bound_to 7965
  139.8933  143.6925  152.3142 LP  0  0  0  0  0  0  0  0  0  0  0  0  # atno 17342 bound_to 10162
  139.7249  144.7595  151.0895 LP  0  0  0  0  0  0  0  0  0  0  0  0  # atno 17343 bound_to 10162
  155.9884  130.3959  150.3121 LP  0  0  0  0  0  0  0  0  0  0  0  0  # atno 17370 bound_to 10713
  157.1270  131.0261  151.2985 LP  0  0  0  0  0  0  0  0  0  0  0  0  # atno 17371 bound_to 10713
  140.2806  134.8320  157.3929 LP  0  0  0  0  0  0  0  0  0  0  0  0  # atno 17394 bound_to 11000
  140.1437  134.4939  155.8012 LP  0  0  0  0  0  0  0  0  0  0  0  0  # atno 17395 bound_to 11000

$$$$
