AV-unprocessed.smi:2013|AV-procd|sdf|8160|dock4
  -GOLD-   2272010403D 1   1.00000     0.00000
 Structure written by MMmdl.
 50 51  0  0  0  0  0  0  0  0  1 V2000
  146.7782  133.5930  154.2700 C   0  0  0  0  0  0  0  0  0  0  0  0
  147.9585  133.9043  153.3275 C   0  0  0  0  0  0  0  0  0  0  0  0
  147.6752  133.4083  151.8992 C   0  0  0  0  0  0  0  0  0  0  0  0
  149.3840  133.5040  153.8277 C   0  0  1  0  0  0  0  0  0  0  0  0
  149.9838  134.4906  154.8712 C   0  0  0  0  0  0  0  0  0  0  0  0
  150.2565  135.8083  154.3074 N   0  0  0  0  0  0  0  0  0  0  0  0
  151.0462  136.7356  154.8688 C   0  0  0  0  0  0  0  0  0  0  0  0
  151.5830  136.5911  155.9679 O   0  0  0  0  0  0  0  0  0  0  0  0
  151.2542  138.0257  154.0664 C   0  0  0  0  0  0  0  0  0  0  0  0
  150.6528  139.1925  154.7238 N   0  0  0  0  0  0  0  0  0  0  0  0
  149.5784  139.8352  154.1364 C   0  0  0  0  0  0  0  0  0  0  0  0
  148.9550  140.8992  154.6881 C   0  0  0  0  0  0  0  0  0  0  0  0
  149.3932  141.4445  155.9674 C   0  0  0  0  0  0  0  0  0  0  0  0
  148.8421  142.4025  156.5106 O   0  0  0  0  0  0  0  0  0  0  0  0
  150.5016  140.7755  156.5405 N   0  0  0  0  0  0  0  0  0  0  0  0
  151.0088  141.2255  157.8202 C   0  0  0  0  0  0  0  0  0  0  0  0
  151.1428  139.6576  155.9634 C   0  0  0  0  0  0  0  0  0  0  0  0
  152.0926  139.0963  156.5158 O   0  0  0  0  0  0  0  0  0  0  0  0
  149.5521  132.0754  154.1601 N   0  0  0  0  0  0  0  0  0  0  0  0
  149.3787  131.1956  153.0057 C   0  0  0  0  0  0  0  0  0  0  0  0
  149.4226  129.7121  153.4079 C   0  0  0  0  0  0  0  0  0  0  0  0
  150.6505  129.4372  154.0737 O   0  0  0  0  0  0  0  0  0  0  0  0
  150.8364  130.2410  155.2340 C   0  0  0  0  0  0  0  0  0  0  0  0
  150.7938  131.7305  154.8501 C   0  0  0  0  0  0  0  0  0  0  0  0
  146.5391  132.5331  154.3121 H   0  0  0  0  0  0  0  0  0  0  0  0
  145.8770  134.0967  153.9193 H   0  0  0  0  0  0  0  0  0  0  0  0
  146.9552  133.9430  155.2860 H   0  0  0  0  0  0  0  0  0  0  0  0
  147.9717  134.9921  153.2494 H   0  0  0  0  0  0  0  0  0  0  0  0
  147.5816  132.3225  151.8634 H   0  0  0  0  0  0  0  0  0  0  0  0
  148.4748  133.6981  151.2167 H   0  0  0  0  0  0  0  0  0  0  0  0
  146.7466  133.8309  151.5144 H   0  0  0  0  0  0  0  0  0  0  0  0
  149.9912  133.6497  152.9330 H   0  0  0  0  0  0  0  0  0  0  0  0
  149.3024  134.6258  155.7106 H   0  0  0  0  0  0  0  0  0  0  0  0
  150.9083  134.1012  155.2975 H   0  0  0  0  0  0  0  0  0  0  0  0
  149.8490  136.0125  153.4063 H   0  0  0  0  0  0  0  0  0  0  0  0
  152.3187  138.2005  153.8995 H   0  0  0  0  0  0  0  0  0  0  0  0
  150.8179  137.8848  153.0769 H   0  0  0  0  0  0  0  0  0  0  0  0
  149.2116  139.4655  153.1897 H   0  0  0  0  0  0  0  0  0  0  0  0
  148.1171  141.3510  154.1777 H   0  0  0  0  0  0  0  0  0  0  0  0
  152.0937  141.3155  157.7384 H   0  0  0  0  0  0  0  0  0  0  0  0
  150.7253  140.4720  158.5568 H   0  0  0  0  0  0  0  0  0  0  0  0
  150.5964  142.1985  158.0857 H   0  0  0  0  0  0  0  0  0  0  0  0
  148.4273  131.4053  152.5162 H   0  0  0  0  0  0  0  0  0  0  0  0
  150.1591  131.3794  152.2675 H   0  0  0  0  0  0  0  0  0  0  0  0
  148.5830  129.4627  154.0584 H   0  0  0  0  0  0  0  0  0  0  0  0
  149.3445  129.0771  152.5254 H   0  0  0  0  0  0  0  0  0  0  0  0
  150.0645  130.0115  155.9703 H   0  0  0  0  0  0  0  0  0  0  0  0
  151.7957  129.9944  155.6888 H   0  0  0  0  0  0  0  0  0  0  0  0
  151.6518  131.9568  154.2165 H   0  0  0  0  0  0  0  0  0  0  0  0
  150.9063  132.3156  155.7569 H   0  0  0  0  0  0  0  0  0  0  0  0
  1  2  1  0  0  0  0
  1 25  1  0  0  0  0
  1 26  1  0  0  0  0
  1 27  1  0  0  0  0
  2  3  1  0  0  0  0
  2  4  1  0  0  0  0
  2 28  1  0  0  0  0
  3 29  1  0  0  0  0
  3 30  1  0  0  0  0
  3 31  1  0  0  0  0
  4  5  1  0  0  0  0
  4 19  1  0  0  0  0
  4 32  1  0  0  0  0
  5  6  1  0  0  0  0
  5 33  1  0  0  0  0
  5 34  1  0  0  0  0
  6  7  1  0  0  0  0
  6 35  1  0  0  0  0
  7  8  2  0  0  0  0
  7  9  1  0  0  0  0
  9 10  1  0  0  0  0
  9 36  1  0  0  0  0
  9 37  1  0  0  0  0
 10 17  1  0  0  0  0
 10 11  1  0  0  0  0
 11 12  2  0  0  0  0
 11 38  1  0  0  0  0
 12 13  1  0  0  0  0
 12 39  1  0  0  0  0
 13 14  2  0  0  0  0
 13 15  1  0  0  0  0
 15 16  1  0  0  0  0
 15 17  1  0  0  0  0
 16 40  1  0  0  0  0
 16 41  1  0  0  0  0
 16 42  1  0  0  0  0
 17 18  2  0  0  0  0
 19 24  1  0  0  0  0
 19 20  1  0  0  0  0
 20 21  1  0  0  0  0
 20 43  1  0  0  0  0
 20 44  1  0  0  0  0
 21 22  1  0  0  0  0
 21 45  1  0  0  0  0
 21 46  1  0  0  0  0
 22 23  1  0  0  0  0
 23 24  1  0  0  0  0
 23 47  1  0  0  0  0
 23 48  1  0  0  0  0
 24 49  1  0  0  0  0
 24 50  1  0  0  0  0
M  END
> <s_m_source_file>
AV-unprocessed.smi

> <i_m_source_file_index>
2013

> <i_lp_mmshare_version>
43012

> <i_f3d_flags>
0

> <s_epik_input>
W0NIMl0xW0NIMl1PW0NIMl1bQ0gyXU4xW0NASF0oW0NIXShbQ0gzXSlbQ0gzXSlbQ0gyXVtOSF1DKD1PKVtDSDJdbjJbY0hdW2NIXWMoPU8pbihbQ0gzXSljMj1P

> <s_epik_cmdline>
J2VwaWtfcHl0aG9uJywgJy1waCcsICc3LjAnLCAnLXRuJywgJzgnLCAnLW1hJywgJzIwMCcsICctbWV0YWxfYmluZGluZycsICctaW1hZScsICc8aW5maWxlLm1hZT4nLCAnLW9tYWUnLCAnPG91dGZpbGUubWFlPic=

> <r_lp_tautomer_probability>
1

> <r_epik_Ionization_Penalty>
0.45351

> <r_epik_Ionization_Penalty_Charging>
1.24653e-08

> <r_epik_Ionization_Penalty_Neutral>
0.45351

> <r_epik_State_Penalty>
0.456487

> <r_epik_Charging_Adjusted_Penalty>
0.456487

> <i_epik_Tot_Q>
0

> <i_epik_Tot_abs_Q>
0

> <r_epik_Metal_State_Penalty>
0.456449

> <b_epik_Metal_Only>
0

> <s_lp_Force_Field>
OPLS_2005

> <r_lp_Energy>
45.5307

> <b_lp_Chiralities_Consistent>
1

> <s_lp_Variant>
AV-unprocessed.smi:2013-4

> <Gold.Version>
5.8.1

> <Gold.Id.Protein>
6NUR|6NUR_protein|mol2

> <Gold.PLP.Fitness>
48.2435

> <Gold.PLP.PLP>
-37.3747

> <Gold.PLP.part.hbond>
-3.4197

> <Gold.PLP.part.metal>
0.0000

> <Gold.PLP.part.buried>
-2.8682

> <Gold.PLP.part.nonpolar>
-33.0172

> <Gold.PLP.part.repulsive>
2.5165

> <Gold.PLP.ligand.clash>
0.0000

> <Gold.PLP.ligand.torsion>
0.8500

> <Gold.PLP.Chemscore.Hbond>
3.0000

> <Gold.PLP.Chemscore.CHOScore>
0.9963

> <Gold.PLP.Chemscore.Metal>
0.0000

> <Gold.Chemscore.Hbonds>
donor molecule, donor type, donor heavy atom, donor atom, acceptor molecule, acceptor atom, score
      L1  H     6    35       P1  7948  0.65
      P1  H 10752 10764       L1     8  0.41
      L1  C    11    38       P1  7957  1.00

> <Gold.PLP.Chemscore.Internal.Correction>
0.5799

> <Gold.Rescore>
     Score         DG    S(hbond)    S(metal)    S(lipo)     H(rot)  DE(clash)    DE(int)     intcor
     13.17     -15.75       2.49        0.00      64.96       2.20       0.02       2.57       ----

> <Gold.Chemscore.Fitness>
13.1696

> <Gold.Chemscore.DG>
-15.7549

> <Gold.Chemscore.ZeroCoef>
-5.4800

> <Gold.Chemscore.Hbond>
2.4899

> <Gold.Chemscore.Metal>
0.0000

> <Gold.Chemscore.Lipo>
64.9641

> <Gold.Chemscore.Internal_Hbond>
0.0000

> <Gold.Chemscore.DEClash>
0.0196

> <Gold.Chemscore.DEInternal>
2.5658

> <Gold.Chemscore.Rot>
2.2039

> <Gold.Chemscore.Internal.Correction>
   9.000000E+99

> <Gold.Chemscore.Hbonds>
donor molecule, donor type, donor heavy atom, donor atom, acceptor molecule, acceptor atom, score
      L1  H     6    35       P1  7948  0.06
      P1  H  7997  8008       L1    18  0.04
      P1  H 10752 10764       L1     8  0.03

> <Gold.Chemscore.Hbond.Weighted>
-8.3161

> <Gold.Chemscore.Metal.Weighted>
-0.0000

> <Gold.Chemscore.Lipo.Weighted>
-7.6008

> <Gold.Chemscore.Internal_Hbond.Weighted>
0.0000

> <Gold.Chemscore.DEClash.Weighted>
0.0196

> <Gold.Chemscore.DEInternal.Weighted>
2.5658

> <Gold.Chemscore.Rot.Weighted>
5.6420

> <Gold.Chemscore.Internal.Correction.Weighted>
   9.000000E+99

> <Gold.Protein.RotatedTorsions>
[ 6907 6896 6895 6894 ] final -155.48 input  -60.11 | X-H torsion
[ 7974 7965 7964 7962 ] final -171.63 input  175.53 | X-H torsion
[ 8008 7997 7996 7995 ] final  -51.65 input   59.86 | X-H torsion
[ 10167 10162 10161 10158 ] final   53.68 input  -65.29 | X-H torsion
[ 10718 10713 10712 10709 ] final  173.72 input   66.30 | X-H torsion
[ 10763 10752 10751 10750 ] final  -20.02 input  -60.55 | X-H torsion
[ 11005 11000 10999 10996 ] final   55.51 input  -57.11 | X-H torsion

> <Gold.Protein.ActiveResidues>
 VAL166  LYS551  ARG553  GLY616  TRP617  ASP618  TYR619  PRO620  LYS621  CYS622 
 ASP623  PHE694  ASN695  SER759  ASP760  ASP761  ALA762  ILE779  LEU786  VAL792 
 PHE793  MET794  SER795  GLU796  ALA797  LYS798  CYS799  TRP800  GLU811  SER814 

> <Gold.Protein.RotatedAtoms>
  151.2731  133.4245  159.2622 H   0  0  0  0  0  0  0  0  0  0  0  0  # atno 6907 bound_to 6896
  151.0427  134.9619  159.8180 H   0  0  0  0  0  0  0  0  0  0  0  0  # atno 6908 bound_to 6896
  152.5368  134.2688  159.9016 H   0  0  0  0  0  0  0  0  0  0  0  0  # atno 6909 bound_to 6896
  144.7155  140.1893  143.6350 H   0  0  0  0  0  0  0  0  0  0  0  0  # atno 7974 bound_to 7965
  154.4088  140.1243  156.4863 H   0  0  0  0  0  0  0  0  0  0  0  0  # atno 8008 bound_to 7997
  155.7034  140.3494  155.4923 H   0  0  0  0  0  0  0  0  0  0  0  0  # atno 8009 bound_to 7997
  155.9364  140.1079  157.1081 H   0  0  0  0  0  0  0  0  0  0  0  0  # atno 8010 bound_to 7997
  140.2382  144.3613  150.6390 H   0  0  0  0  0  0  0  0  0  0  0  0  # atno 10167 bound_to 10162
  156.9601  131.0058  151.2929 H   0  0  0  0  0  0  0  0  0  0  0  0  # atno 10718 bound_to 10713
  153.6139  135.6995  153.5336 H   0  0  0  0  0  0  0  0  0  0  0  0  # atno 10763 bound_to 10752
  153.2993  135.4133  155.1238 H   0  0  0  0  0  0  0  0  0  0  0  0  # atno 10764 bound_to 10752
  154.8557  135.3645  154.5679 H   0  0  0  0  0  0  0  0  0  0  0  0  # atno 10765 bound_to 10752
  140.0601  134.5614  155.9162 H   0  0  0  0  0  0  0  0  0  0  0  0  # atno 11005 bound_to 11000
  145.8784  139.2309  143.1620 LP  0  0  0  0  0  0  0  0  0  0  0  0  # atno 17320 bound_to 7965
  146.0019  140.8513  143.0014 LP  0  0  0  0  0  0  0  0  0  0  0  0  # atno 17321 bound_to 7965
  140.6134  143.2171  151.6841 LP  0  0  0  0  0  0  0  0  0  0  0  0  # atno 17342 bound_to 10162
  139.5086  144.3604  152.0567 LP  0  0  0  0  0  0  0  0  0  0  0  0  # atno 17343 bound_to 10162
  157.5663  130.8280  149.8332 LP  0  0  0  0  0  0  0  0  0  0  0  0  # atno 17370 bound_to 10713
  156.0326  130.3760  150.1647 LP  0  0  0  0  0  0  0  0  0  0  0  0  # atno 17371 bound_to 10713
  141.1969  133.6594  156.5716 LP  0  0  0  0  0  0  0  0  0  0  0  0  # atno 17394 bound_to 11000
  140.3783  134.7545  157.4644 LP  0  0  0  0  0  0  0  0  0  0  0  0  # atno 17395 bound_to 11000

$$$$
