AV-unprocessed.smi:2557|AV-procd|sdf|10030|dock7
  -GOLD-   2272014 73D 1   1.00000     0.00000
 Structure written by MMmdl.
 38 40  0  0  0  0  0  0  0  0  2 V2000
  153.5052  136.2624  160.1879 O   0  5  0  0  0  0  0  0  0  0  0  0
  153.7581  137.3907  160.6727 C   0  0  0  0  0  0  0  0  0  0  0  0
  153.2978  138.6746  160.3666 C   0  0  0  0  0  0  0  0  0  0  0  0
  152.2904  138.9008  159.2975 C   0  0  0  0  0  0  0  0  0  0  0  0
  151.8349  137.9823  158.6172 O   0  0  0  0  0  0  0  0  0  0  0  0
  151.8491  140.2126  159.0644 N   0  0  0  0  0  0  0  0  0  0  0  0
  152.3262  141.1928  159.7704 C   0  0  0  0  0  0  0  0  0  0  0  0
  151.8783  142.6392  159.5436 C   0  0  0  0  0  0  0  0  0  0  0  0
  152.6466  143.3572  158.4075 C   0  0  0  0  0  0  0  0  0  0  0  0
  152.1297  144.7888  158.1929 C   0  0  0  0  0  0  0  0  0  0  0  0
  152.2052  145.6060  159.4914 C   0  0  0  0  0  0  0  0  0  0  0  0
  151.4430  144.9079  160.6279 C   0  0  0  0  0  0  0  0  0  0  0  0
  151.9489  143.4718  160.8440 C   0  0  0  0  0  0  0  0  0  0  0  0
  153.2769  141.0648  160.7668 N   0  0  0  0  0  0  0  0  0  0  0  0
  153.7532  139.7933  161.0633 N   0  0  0  0  0  0  0  0  0  0  0  0
  154.7851  137.2370  161.7214 C   0  0  0  0  0  0  0  0  0  0  0  0
  156.0395  136.6562  161.4317 C   0  0  0  0  0  0  0  0  0  0  0  0
  156.9825  136.5261  162.4698 C   0  0  0  0  0  0  0  0  0  0  0  0
  156.7508  136.9268  163.7381 N   0  0  0  0  0  0  0  0  0  0  0  0
  155.5478  137.4744  164.0142 C   0  0  0  0  0  0  0  0  0  0  0  0
  154.5369  137.6498  163.0491 C   0  0  0  0  0  0  0  0  0  0  0  0
  150.8314  142.5975  159.2377 H   0  0  0  0  0  0  0  0  0  0  0  0
  153.7122  143.3967  158.6391 H   0  0  0  0  0  0  0  0  0  0  0  0
  152.5519  142.7973  157.4760 H   0  0  0  0  0  0  0  0  0  0  0  0
  152.7096  145.2797  157.4110 H   0  0  0  0  0  0  0  0  0  0  0  0
  151.0982  144.7568  157.8398 H   0  0  0  0  0  0  0  0  0  0  0  0
  153.2486  145.7408  159.7790 H   0  0  0  0  0  0  0  0  0  0  0  0
  151.7978  146.6039  159.3274 H   0  0  0  0  0  0  0  0  0  0  0  0
  151.5461  145.4804  161.5501 H   0  0  0  0  0  0  0  0  0  0  0  0
  150.3778  144.8885  160.3944 H   0  0  0  0  0  0  0  0  0  0  0  0
  151.3592  143.0039  161.6333 H   0  0  0  0  0  0  0  0  0  0  0  0
  152.9779  143.5013  161.2062 H   0  0  0  0  0  0  0  0  0  0  0  0
  153.6445  141.8351  161.3060 H   0  0  0  0  0  0  0  0  0  0  0  0
  154.4318  139.6967  161.8051 H   0  0  0  0  0  0  0  0  0  0  0  0
  156.2709  136.3176  160.4323 H   0  0  0  0  0  0  0  0  0  0  0  0
  157.9502  136.0879  162.2758 H   0  0  0  0  0  0  0  0  0  0  0  0
  155.3855  137.7836  165.0360 H   0  0  0  0  0  0  0  0  0  0  0  0
  153.5900  138.0933  163.3195 H   0  0  0  0  0  0  0  0  0  0  0  0
  1  2  1  0  0  0  0
  2  3  2  0  0  0  0
  2 16  1  0  0  0  0
  3 15  1  0  0  0  0
  3  4  1  0  0  0  0
  4  5  2  0  0  0  0
  4  6  1  0  0  0  0
  6  7  2  0  0  0  0
  7  8  1  0  0  0  0
  7 14  1  0  0  0  0
  8 13  1  0  0  0  0
  8  9  1  0  0  0  0
  8 22  1  0  0  0  0
  9 10  1  0  0  0  0
  9 23  1  0  0  0  0
  9 24  1  0  0  0  0
 10 11  1  0  0  0  0
 10 25  1  0  0  0  0
 10 26  1  0  0  0  0
 11 12  1  0  0  0  0
 11 27  1  0  0  0  0
 11 28  1  0  0  0  0
 12 13  1  0  0  0  0
 12 29  1  0  0  0  0
 12 30  1  0  0  0  0
 13 31  1  0  0  0  0
 13 32  1  0  0  0  0
 14 15  1  0  0  0  0
 14 33  1  0  0  0  0
 15 34  1  0  0  0  0
 16 21  1  0  0  0  0
 16 17  2  0  0  0  0
 17 18  1  0  0  0  0
 17 35  1  0  0  0  0
 18 19  2  0  0  0  0
 18 36  1  0  0  0  0
 19 20  1  0  0  0  0
 20 21  2  0  0  0  0
 20 37  1  0  0  0  0
 21 38  1  0  0  0  0
M  CHG  1   1  -1
M  END
> <s_m_source_file>
AV-unprocessed.smi

> <i_m_source_file_index>
2557

> <i_lp_mmshare_version>
43012

> <i_f3d_flags>
0

> <s_epik_input>
W2NIXTFbY0hdbltjSF1bY0hdYzFDKD1PKUMyPUMoW09IXSlOPUMoW05IXVtOSF0yKVtDSF0zW0NIMl1bQ0gyXVtDSDJdW0NIMl1bQ0gyXTM=

> <s_epik_cmdline>
J2VwaWtfcHl0aG9uJywgJy1waCcsICc3LjAnLCAnLXRuJywgJzgnLCAnLW1hJywgJzIwMCcsICctbWV0YWxfYmluZGluZycsICctaW1hZScsICc8aW5maWxlLm1hZT4nLCAnLW9tYWUnLCAnPG91dGZpbGUubWFlPic=

> <r_epik_Ionization_Penalty>
0.904364

> <r_epik_Ionization_Penalty_Charging>
0.00179702

> <r_epik_Ionization_Penalty_Neutral>
0.902567

> <r_epik_State_Penalty>
2.26092

> <r_epik_Charging_Adjusted_Penalty>
2.26271

> <i_epik_Tot_Q>
-1

> <i_epik_Tot_abs_Q>
1

> <r_epik_Metal_State_Penalty>
1.86017

> <b_epik_Metal_Only>
0

> <s_epik_Chemistry_Notes>
This compound has an imine and may undergo hydrolysis.

> <s_lp_Force_Field>
OPLS_2005

> <r_lp_Energy>
33.3792

> <b_lp_Chiralities_Consistent>
1

> <s_lp_Variant>
AV-unprocessed.smi:2557-4

> <Gold.Version>
5.8.1

> <Gold.Id.Protein>
6NUR|6NUR_protein|mol2

> <Gold.PLP.Fitness>
38.4276

> <Gold.PLP.PLP>
-33.9182

> <Gold.PLP.part.hbond>
-1.0000

> <Gold.PLP.part.metal>
0.0000

> <Gold.PLP.part.buried>
-5.4628

> <Gold.PLP.part.nonpolar>
-27.3947

> <Gold.PLP.part.repulsive>
0.1027

> <Gold.PLP.ligand.clash>
0.0000

> <Gold.PLP.ligand.torsion>
1.8248

> <Gold.PLP.Chemscore.Hbond>
2.0000

> <Gold.PLP.Chemscore.CHOScore>
0.0000

> <Gold.PLP.Chemscore.Metal>
0.0000

> <Gold.Chemscore.Hbonds>
donor molecule, donor type, donor heavy atom, donor atom, acceptor molecule, acceptor atom, score
      P1  H  6896  6909       L1     1  2.00

> <Gold.PLP.Chemscore.Internal.Correction>
2.1590

> <Gold.Rescore>
     Score         DG    S(hbond)    S(metal)    S(lipo)     H(rot)  DE(clash)    DE(int)     intcor
     17.03     -18.79       1.00        0.00     107.10       1.00       0.01       1.74       ----

> <Gold.Chemscore.Fitness>
17.0349

> <Gold.Chemscore.DG>
-18.7863

> <Gold.Chemscore.ZeroCoef>
-5.4800

> <Gold.Chemscore.Hbond>
0.9988

> <Gold.Chemscore.Metal>
0.0000

> <Gold.Chemscore.Lipo>
107.0976

> <Gold.Chemscore.Internal_Hbond>
0.0000

> <Gold.Chemscore.DEClash>
0.0149

> <Gold.Chemscore.DEInternal>
1.7366

> <Gold.Chemscore.Rot>
1.0000

> <Gold.Chemscore.Internal.Correction>
   9.000000E+99

> <Gold.Chemscore.Hbonds>
donor molecule, donor type, donor heavy atom, donor atom, acceptor molecule, acceptor atom, score
      P1  H  6896  6909       L1     1  1.00

> <Gold.Chemscore.Hbond.Weighted>
-3.3359

> <Gold.Chemscore.Metal.Weighted>
-0.0000

> <Gold.Chemscore.Lipo.Weighted>
-12.5304

> <Gold.Chemscore.Internal_Hbond.Weighted>
0.0000

> <Gold.Chemscore.DEClash.Weighted>
0.0149

> <Gold.Chemscore.DEInternal.Weighted>
1.7366

> <Gold.Chemscore.Rot.Weighted>
2.5600

> <Gold.Chemscore.Internal.Correction.Weighted>
   9.000000E+99

> <Gold.Protein.RotatedTorsions>
[ 6907 6896 6895 6894 ] final  164.31 input  -60.11 | X-H torsion
[ 7974 7965 7964 7962 ] final  -31.80 input  175.53 | X-H torsion
[ 8008 7997 7996 7995 ] final  123.97 input   59.86 | X-H torsion
[ 10167 10162 10161 10158 ] final  130.96 input  -65.29 | X-H torsion
[ 10718 10713 10712 10709 ] final   -0.42 input   66.30 | X-H torsion
[ 10763 10752 10751 10750 ] final  -11.96 input  -60.55 | X-H torsion
[ 11005 11000 10999 10996 ] final -144.92 input  -57.11 | X-H torsion

> <Gold.Protein.ActiveResidues>
 VAL166  LYS551  ARG553  GLY616  TRP617  ASP618  TYR619  PRO620  LYS621  CYS622 
 ASP623  PHE694  ASN695  SER759  ASP760  ASP761  ALA762  ILE779  LEU786  VAL792 
 PHE793  MET794  SER795  GLU796  ALA797  LYS798  CYS799  TRP800  GLU811  SER814 

> <Gold.Protein.RotatedAtoms>
  151.9118  133.3563  159.3865 H   0  0  0  0  0  0  0  0  0  0  0  0  # atno 6907 bound_to 6896
  150.7056  134.4725  159.5441 H   0  0  0  0  0  0  0  0  0  0  0  0  # atno 6908 bound_to 6896
  152.2332  134.8302  160.0521 H   0  0  0  0  0  0  0  0  0  0  0  0  # atno 6909 bound_to 6896
  146.1039  140.5712  142.8808 H   0  0  0  0  0  0  0  0  0  0  0  0  # atno 7974 bound_to 7965
  156.2785  140.2750  156.1712 H   0  0  0  0  0  0  0  0  0  0  0  0  # atno 8008 bound_to 7997
  155.0652  140.0387  157.2608 H   0  0  0  0  0  0  0  0  0  0  0  0  # atno 8009 bound_to 7997
  154.7084  140.2663  155.6658 H   0  0  0  0  0  0  0  0  0  0  0  0  # atno 8010 bound_to 7997
  139.5406  144.6726  151.4639 H   0  0  0  0  0  0  0  0  0  0  0  0  # atno 10167 bound_to 10162
  156.8207  130.5455  149.5697 H   0  0  0  0  0  0  0  0  0  0  0  0  # atno 10718 bound_to 10713
  153.4914  135.7017  153.5882 H   0  0  0  0  0  0  0  0  0  0  0  0  # atno 10763 bound_to 10752
  153.4053  135.3862  155.2014 H   0  0  0  0  0  0  0  0  0  0  0  0  # atno 10764 bound_to 10752
  154.8716  135.3891  154.4375 H   0  0  0  0  0  0  0  0  0  0  0  0  # atno 10765 bound_to 10752
  140.7975  134.2896  157.4991 H   0  0  0  0  0  0  0  0  0  0  0  0  # atno 11005 bound_to 11000
  144.7455  140.5057  143.6839 LP  0  0  0  0  0  0  0  0  0  0  0  0  # atno 17320 bound_to 7965
  145.5799  139.1488  143.3241 LP  0  0  0  0  0  0  0  0  0  0  0  0  # atno 17321 bound_to 7965
  140.6633  143.8451  150.6913 LP  0  0  0  0  0  0  0  0  0  0  0  0  # atno 17342 bound_to 10162
  140.1852  143.4081  152.1903 LP  0  0  0  0  0  0  0  0  0  0  0  0  # atno 17343 bound_to 10162
  156.0991  130.5955  150.9863 LP  0  0  0  0  0  0  0  0  0  0  0  0  # atno 17370 bound_to 10713
  157.6458  131.0904  150.8156 LP  0  0  0  0  0  0  0  0  0  0  0  0  # atno 17371 bound_to 10713
  139.8725  134.9410  156.3786 LP  0  0  0  0  0  0  0  0  0  0  0  0  # atno 17394 bound_to 11000
  140.9328  133.7568  156.0046 LP  0  0  0  0  0  0  0  0  0  0  0  0  # atno 17395 bound_to 11000

$$$$
