AV-unprocessed.smi:226|AV-procd|sdf|1725|dock9
  -GOLD-   2262020213D 1   1.00000     0.00000
 Structure written by MMmdl.
 54 58  0  0  0  0  0  0  0  0  1 V2000
  156.1055  139.9683  168.2516 O   0  0  0  0  0  0  0  0  0  0  0  0
  156.1616  140.4029  167.1002 C   0  0  0  0  0  0  0  0  0  0  0  0
  156.3665  141.6957  166.8095 N   0  0  0  0  0  0  0  0  0  0  0  0
  156.5642  142.7392  167.7619 C   0  0  0  0  0  0  0  0  0  0  0  0
  155.5560  142.8708  168.8828 C   0  0  0  0  0  0  0  0  0  0  0  0
  155.5686  143.8786  167.7666 C   0  0  0  0  0  0  0  0  0  0  0  0
  155.9894  139.4629  165.8929 C   0  0  2  0  0  0  0  0  0  0  0  0
  157.0271  138.3267  165.9061 C   0  0  0  0  0  0  0  0  0  0  0  0
  158.2057  138.8758  165.1042 C   0  0  0  0  0  0  0  0  0  0  0  0
  157.5283  139.7390  164.0405 C   0  0  0  0  0  0  0  0  0  0  0  0
  156.2504  140.1389  164.6219 N   0  0  0  0  0  0  0  0  0  0  0  0
  155.3902  140.9831  163.9866 C   0  0  0  0  0  0  0  0  0  0  0  0
  154.9607  142.0783  164.6685 N   0  0  0  0  0  0  0  0  0  0  0  0
  154.1164  142.9471  164.1079 C   0  0  0  0  0  0  0  0  0  0  0  0
  153.5772  142.9155  162.8900 N   0  0  0  0  0  0  0  0  0  0  0  0
  153.9970  141.8221  162.1929 C   0  0  0  0  0  0  0  0  0  0  0  0
  154.8994  140.8183  162.6542 C   0  0  0  0  0  0  0  0  0  0  0  0
  155.0964  139.8820  161.6436 N   0  0  0  0  0  0  0  0  0  0  0  0
  154.3605  140.3046  160.6535 C   0  0  0  0  0  0  0  0  0  0  0  0
  153.6423  141.4491  160.9080 N   0  0  0  0  0  0  0  0  0  0  0  0
  152.7911  142.1518  159.9924 C   0  0  0  0  0  0  0  0  0  0  0  0
  153.3509  143.2428  159.0751 C   0  0  0  0  0  0  0  0  0  0  0  0
  152.0502  144.0611  159.2314 C   0  0  0  0  0  0  0  0  0  0  0  0
  152.2517  145.5562  159.5231 C   0  0  0  0  0  0  0  0  0  0  0  0
  151.1866  146.0799  160.2902 O   0  0  0  0  0  0  0  0  0  0  0  0
  151.0102  143.9570  158.0934 C   0  0  0  0  0  0  0  0  0  0  0  0
  151.5169  144.3513  156.8342 O   0  0  0  0  0  0  0  0  0  0  0  0
  151.7834  143.1962  160.4841 C   0  0  0  0  0  0  0  0  0  0  0  0
  156.3966  141.9591  165.8352 H   0  0  0  0  0  0  0  0  0  0  0  0
  157.5916  143.0027  168.0099 H   0  0  0  0  0  0  0  0  0  0  0  0
  154.7302  142.1625  168.9114 H   0  0  0  0  0  0  0  0  0  0  0  0
  155.9262  143.1926  169.8542 H   0  0  0  0  0  0  0  0  0  0  0  0
  155.9477  144.8734  167.9912 H   0  0  0  0  0  0  0  0  0  0  0  0
  154.7513  143.8432  167.0485 H   0  0  0  0  0  0  0  0  0  0  0  0
  154.9902  139.0262  165.8999 H   0  0  0  0  0  0  0  0  0  0  0  0
  157.3170  138.0108  166.9094 H   0  0  0  0  0  0  0  0  0  0  0  0
  156.6171  137.4530  165.3974 H   0  0  0  0  0  0  0  0  0  0  0  0
  158.8297  139.4989  165.7464 H   0  0  0  0  0  0  0  0  0  0  0  0
  158.8354  138.0939  164.6789 H   0  0  0  0  0  0  0  0  0  0  0  0
  158.1474  140.5986  163.7800 H   0  0  0  0  0  0  0  0  0  0  0  0
  157.3447  139.1587  163.1352 H   0  0  0  0  0  0  0  0  0  0  0  0
  153.8312  143.7868  164.7245 H   0  0  0  0  0  0  0  0  0  0  0  0
  154.3186  139.7845  159.7076 H   0  0  0  0  0  0  0  0  0  0  0  0
  152.2902  141.3805  159.4063 H   0  0  0  0  0  0  0  0  0  0  0  0
  154.2195  143.7409  159.5094 H   0  0  0  0  0  0  0  0  0  0  0  0
  153.5626  142.9088  158.0588 H   0  0  0  0  0  0  0  0  0  0  0  0
  153.1890  145.7335  160.0515 H   0  0  0  0  0  0  0  0  0  0  0  0
  152.3068  146.1304  158.5976 H   0  0  0  0  0  0  0  0  0  0  0  0
  150.9371  145.4355  160.9352 H   0  0  0  0  0  0  0  0  0  0  0  0
  150.6464  142.9335  157.9961 H   0  0  0  0  0  0  0  0  0  0  0  0
  150.1391  144.5790  158.3017 H   0  0  0  0  0  0  0  0  0  0  0  0
  150.7914  144.4545  156.2373 H   0  0  0  0  0  0  0  0  0  0  0  0
  150.7625  142.8244  160.5762 H   0  0  0  0  0  0  0  0  0  0  0  0
  152.1038  143.6790  161.4089 H   0  0  0  0  0  0  0  0  0  0  0  0
  1  2  2  0  0  0  0
  2  3  1  0  0  0  0
  2  7  1  0  0  0  0
  3  4  1  0  0  0  0
  3 29  1  0  0  0  0
  4  6  1  0  0  0  0
  4  5  1  0  0  0  0
  4 30  1  0  0  0  0
  5  6  1  0  0  0  0
  5 31  1  0  0  0  0
  5 32  1  0  0  0  0
  6 33  1  0  0  0  0
  6 34  1  0  0  0  0
  7 11  1  0  0  0  0
  7  8  1  0  0  0  0
  7 35  1  0  0  0  0
  8  9  1  0  0  0  0
  8 36  1  0  0  0  0
  8 37  1  0  0  0  0
  9 10  1  0  0  0  0
  9 38  1  0  0  0  0
  9 39  1  0  0  0  0
 10 11  1  0  0  0  0
 10 40  1  0  0  0  0
 10 41  1  0  0  0  0
 11 12  1  0  0  0  0
 12 17  1  0  0  0  0
 12 13  2  0  0  0  0
 13 14  1  0  0  0  0
 14 15  2  0  0  0  0
 14 42  1  0  0  0  0
 15 16  1  0  0  0  0
 16 20  1  0  0  0  0
 16 17  2  0  0  0  0
 17 18  1  0  0  0  0
 18 19  2  0  0  0  0
 19 20  1  0  0  0  0
 19 43  1  0  0  0  0
 20 21  1  0  0  0  0
 21 28  1  0  0  0  0
 21 22  1  0  0  0  0
 21 44  1  0  0  0  0
 22 23  1  0  0  0  0
 22 45  1  0  0  0  0
 22 46  1  0  0  0  0
 23 24  1  0  0  0  0
 23 26  1  0  0  0  0
 23 28  1  0  0  0  0
 24 25  1  0  0  0  0
 24 47  1  0  0  0  0
 24 48  1  0  0  0  0
 25 49  1  0  0  0  0
 26 27  1  0  0  0  0
 26 50  1  0  0  0  0
 26 51  1  0  0  0  0
 27 52  1  0  0  0  0
 28 53  1  0  0  0  0
 28 54  1  0  0  0  0
M  END
> <s_m_source_file>
AV-unprocessed.smi

> <i_m_source_file_index>
226

> <i_lp_mmshare_version>
43012

> <i_f3d_flags>
0

> <s_epik_input>
W0NIMl0xW0NIMl1bQ0hdMVtOSF1DKD1PKVtDQEBIXTJbQ0gyXVtDSDJdW0NIMl1OMmMobltjSF1uMyljKGMzNCluW2NIXW40W0NIXShbQ0gyXTUpW0NIMl1DNShbQ0gyXVtPSF0pW0NIMl1bT0hd

> <s_epik_cmdline>
J2VwaWtfcHl0aG9uJywgJy1waCcsICc3LjAnLCAnLXRuJywgJzgnLCAnLW1hJywgJzIwMCcsICctbWV0YWxfYmluZGluZycsICctaW1hZScsICc8aW5maWxlLm1hZT4nLCAnLW9tYWUnLCAnPG91dGZpbGUubWFlPic=

> <r_lp_tautomer_probability>
1

> <r_epik_Ionization_Penalty>
0.000818715

> <r_epik_Ionization_Penalty_Charging>
0

> <r_epik_Ionization_Penalty_Neutral>
0.000818715

> <r_epik_State_Penalty>
0.000426447

> <r_epik_Charging_Adjusted_Penalty>
0.000426447

> <i_epik_Tot_Q>
0

> <i_epik_Tot_abs_Q>
0

> <r_epik_Metal_State_Penalty>
-0

> <b_epik_Metal_Only>
0

> <s_lp_Force_Field>
OPLS_2005

> <r_lp_Energy>
61.6174

> <b_lp_Chiralities_Consistent>
1

> <s_lp_Variant>
AV-unprocessed.smi:226-1

> <Gold.Version>
5.8.1

> <Gold.Id.Protein>
6NUR|6NUR_protein|mol2

> <Gold.PLP.Fitness>
52.5109

> <Gold.PLP.PLP>
-53.2801

> <Gold.PLP.part.hbond>
-4.7000

> <Gold.PLP.part.metal>
0.0000

> <Gold.PLP.part.buried>
-1.7018

> <Gold.PLP.part.nonpolar>
-45.3137

> <Gold.PLP.part.repulsive>
0.1991

> <Gold.PLP.ligand.clash>
0.0000

> <Gold.PLP.ligand.torsion>
2.1357

> <Gold.PLP.Chemscore.Hbond>
1.0000

> <Gold.PLP.Chemscore.CHOScore>
0.0000

> <Gold.PLP.Chemscore.Metal>
0.0000

> <Gold.Chemscore.Hbonds>
donor molecule, donor type, donor heavy atom, donor atom, acceptor molecule, acceptor atom, score
      L1  H    27    52       P1  8028  1.00

> <Gold.PLP.Chemscore.Internal.Correction>
0.5022

> <Gold.Rescore>
     Score         DG    S(hbond)    S(metal)    S(lipo)     H(rot)  DE(clash)    DE(int)     intcor
      6.32     -11.34       0.99        0.00      99.10       3.52       0.77       4.25       ----

> <Gold.Chemscore.Fitness>
6.3247

> <Gold.Chemscore.DG>
-11.3423

> <Gold.Chemscore.ZeroCoef>
-5.4800

> <Gold.Chemscore.Hbond>
0.9850

> <Gold.Chemscore.Metal>
0.0000

> <Gold.Chemscore.Lipo>
99.1009

> <Gold.Chemscore.Internal_Hbond>
0.0000

> <Gold.Chemscore.DEClash>
0.7672

> <Gold.Chemscore.DEInternal>
4.2504

> <Gold.Chemscore.Rot>
3.5244

> <Gold.Chemscore.Internal.Correction>
   9.000000E+99

> <Gold.Chemscore.Hbonds>
donor molecule, donor type, donor heavy atom, donor atom, acceptor molecule, acceptor atom, score
      L1  H    27    52       P1  8028  0.97

> <Gold.Chemscore.Hbond.Weighted>
-3.2901

> <Gold.Chemscore.Metal.Weighted>
-0.0000

> <Gold.Chemscore.Lipo.Weighted>
-11.5948

> <Gold.Chemscore.Internal_Hbond.Weighted>
0.0000

> <Gold.Chemscore.DEClash.Weighted>
0.7672

> <Gold.Chemscore.DEInternal.Weighted>
4.2504

> <Gold.Chemscore.Rot.Weighted>
9.0225

> <Gold.Chemscore.Internal.Correction.Weighted>
   9.000000E+99

> <Gold.Protein.RotatedTorsions>
[ 6907 6896 6895 6894 ] final -167.28 input  -60.11 | X-H torsion
[ 7974 7965 7964 7962 ] final -174.48 input  175.53 | X-H torsion
[ 8008 7997 7996 7995 ] final   21.67 input   59.86 | X-H torsion
[ 10167 10162 10161 10158 ] final  104.22 input  -65.29 | X-H torsion
[ 10718 10713 10712 10709 ] final  173.57 input   66.30 | X-H torsion
[ 10763 10752 10751 10750 ] final  168.44 input  -60.55 | X-H torsion
[ 11005 11000 10999 10996 ] final   47.92 input  -57.11 | X-H torsion

> <Gold.Protein.ActiveResidues>
 VAL166  LYS551  ARG553  GLY616  TRP617  ASP618  TYR619  PRO620  LYS621  CYS622 
 ASP623  PHE694  ASN695  SER759  ASP760  ASP761  ALA762  ILE779  LEU786  VAL792 
 PHE793  MET794  SER795  GLU796  ALA797  LYS798  CYS799  TRP800  GLU811  SER814 

> <Gold.Protein.RotatedAtoms>
  151.4571  133.3602  159.2803 H   0  0  0  0  0  0  0  0  0  0  0  0  # atno 6907 bound_to 6896
  150.9051  134.8467  159.7398 H   0  0  0  0  0  0  0  0  0  0  0  0  # atno 6908 bound_to 6896
  152.4901  134.4495  159.9622 H   0  0  0  0  0  0  0  0  0  0  0  0  # atno 6909 bound_to 6896
  144.7132  140.1465  143.6387 H   0  0  0  0  0  0  0  0  0  0  0  0  # atno 7974 bound_to 7965
  154.9540  140.3069  155.5061 H   0  0  0  0  0  0  0  0  0  0  0  0  # atno 8008 bound_to 7997
  156.2984  140.2313  156.4558 H   0  0  0  0  0  0  0  0  0  0  0  0  # atno 8009 bound_to 7997
  154.8027  140.0433  157.1273 H   0  0  0  0  0  0  0  0  0  0  0  0  # atno 8010 bound_to 7997
  139.7196  144.7061  151.0895 H   0  0  0  0  0  0  0  0  0  0  0  0  # atno 10167 bound_to 10162
  156.9623  131.0064  151.2924 H   0  0  0  0  0  0  0  0  0  0  0  0  # atno 10718 bound_to 10713
  154.3687  135.2753  155.2279 H   0  0  0  0  0  0  0  0  0  0  0  0  # atno 10763 bound_to 10752
  154.4436  135.5948  153.6149 H   0  0  0  0  0  0  0  0  0  0  0  0  # atno 10764 bound_to 10752
  152.9839  135.6024  154.3915 H   0  0  0  0  0  0  0  0  0  0  0  0  # atno 10765 bound_to 10752
  140.1237  134.4797  155.8577 H   0  0  0  0  0  0  0  0  0  0  0  0  # atno 11005 bound_to 11000
  145.9154  139.2513  143.1412 LP  0  0  0  0  0  0  0  0  0  0  0  0  # atno 17320 bound_to 7965
  145.9674  140.8788  143.0180 LP  0  0  0  0  0  0  0  0  0  0  0  0  # atno 17321 bound_to 7965
  140.7751  143.5184  150.9566 LP  0  0  0  0  0  0  0  0  0  0  0  0  # atno 17342 bound_to 10162
  139.8871  143.6999  152.3150 LP  0  0  0  0  0  0  0  0  0  0  0  0  # atno 17343 bound_to 10162
  157.5649  130.8271  149.8314 LP  0  0  0  0  0  0  0  0  0  0  0  0  # atno 17370 bound_to 10713
  156.0317  130.3763  150.1670 LP  0  0  0  0  0  0  0  0  0  0  0  0  # atno 17371 bound_to 10713
  141.2157  133.6770  156.6937 LP  0  0  0  0  0  0  0  0  0  0  0  0  # atno 17394 bound_to 11000
  140.2932  134.8223  157.4035 LP  0  0  0  0  0  0  0  0  0  0  0  0  # atno 17395 bound_to 11000

$$$$
