AV-unprocessed.smi:1762|AV-procd|sdf|7120|dock5
  -GOLD-   22720 8353D 1   1.00000     0.00000
 Structure written by MMmdl.
 52 53  0  0  0  0  0  0  0  0  3 V2000
  144.8631  131.7020  150.7088 C   0  0  0  0  0  0  0  0  0  0  0  0
  145.3276  132.6809  151.7924 C   0  0  1  0  0  0  0  0  0  0  0  0
  146.7119  133.2810  151.4748 C   0  0  0  0  0  0  0  0  0  0  0  0
  147.1234  134.2622  152.5155 N   0  3  2  0  0  0  0  0  0  0  0  0
  147.5763  133.6970  153.8374 C   0  0  2  0  0  0  0  0  0  0  0  0
  147.8365  134.8011  154.8934 C   0  0  0  0  0  0  0  0  0  0  0  0
  147.1212  134.8150  155.9007 O   0  0  0  0  0  0  0  0  0  0  0  0
  148.8483  135.6393  154.5263 N   0  5  0  0  0  0  0  0  0  0  0  0
  149.1621  136.8918  155.2117 C   0  0  0  0  0  0  0  0  0  0  0  0
  150.1956  137.7054  154.3986 C   0  0  0  0  0  0  0  0  0  0  0  0
  149.7190  139.0966  153.9937 C   0  0  0  0  0  0  0  0  0  0  0  0
  150.4964  140.2384  154.2941 C   0  0  0  0  0  0  0  0  0  0  0  0
  150.0246  141.5020  153.8899 C   0  0  0  0  0  0  0  0  0  0  0  0
  148.8006  141.5801  153.1991 C   0  0  0  0  0  0  0  0  0  0  0  0
  148.0999  140.3854  152.9411 C   0  0  0  0  0  0  0  0  0  0  0  0
  148.5437  139.1685  153.3223 N   0  0  0  0  0  0  0  0  0  0  0  0
  148.7664  132.6804  153.7478 C   0  0  0  0  0  0  0  0  0  0  0  0
  148.3002  131.2206  153.5813 C   0  0  0  0  0  0  0  0  0  0  0  0
  149.7899  132.7796  154.8981 C   0  0  0  0  0  0  0  0  0  0  0  0
  146.0652  135.3088  152.6123 C   0  0  0  0  0  0  0  0  0  0  0  0
  144.6764  134.6900  152.8824 C   0  0  1  0  0  0  0  0  0  0  0  0
  143.5678  135.7481  152.8809 C   0  0  0  0  0  0  0  0  0  0  0  0
  144.3777  133.7392  151.8651 O   0  0  0  0  0  0  0  0  0  0  0  0
  145.5557  130.8656  150.6125 H   0  0  0  0  0  0  0  0  0  0  0  0
  144.7927  132.1922  149.7374 H   0  0  0  0  0  0  0  0  0  0  0  0
  143.8809  131.2933  150.9477 H   0  0  0  0  0  0  0  0  0  0  0  0
  145.3543  132.1506  152.7456 H   0  0  0  0  0  0  0  0  0  0  0  0
  147.4544  132.5026  151.3141 H   0  0  0  0  0  0  0  0  0  0  0  0
  146.6581  133.8102  150.5221 H   0  0  0  0  0  0  0  0  0  0  0  0
  146.7375  133.1182  154.2233 H   0  0  0  0  0  0  0  0  0  0  0  0
  148.2725  137.4998  155.3822 H   0  0  0  0  0  0  0  0  0  0  0  0
  149.5728  136.6948  156.2023 H   0  0  0  0  0  0  0  0  0  0  0  0
  151.1164  137.8100  154.9744 H   0  0  0  0  0  0  0  0  0  0  0  0
  150.4692  137.1596  153.4941 H   0  0  0  0  0  0  0  0  0  0  0  0
  151.4320  140.1479  154.8260 H   0  0  0  0  0  0  0  0  0  0  0  0
  150.5919  142.3954  154.1056 H   0  0  0  0  0  0  0  0  0  0  0  0
  148.4083  142.5323  152.8746 H   0  0  0  0  0  0  0  0  0  0  0  0
  147.1584  140.4072  152.4130 H   0  0  0  0  0  0  0  0  0  0  0  0
  149.3022  132.8898  152.8228 H   0  0  0  0  0  0  0  0  0  0  0  0
  147.8212  130.8392  154.4836 H   0  0  0  0  0  0  0  0  0  0  0  0
  149.1433  130.5650  153.3616 H   0  0  0  0  0  0  0  0  0  0  0  0
  147.5899  131.1248  152.7596 H   0  0  0  0  0  0  0  0  0  0  0  0
  149.3728  132.4244  155.8403 H   0  0  0  0  0  0  0  0  0  0  0  0
  150.1347  133.8009  155.0553 H   0  0  0  0  0  0  0  0  0  0  0  0
  150.6682  132.1692  154.6870 H   0  0  0  0  0  0  0  0  0  0  0  0
  146.2997  136.0614  153.3644 H   0  0  0  0  0  0  0  0  0  0  0  0
  146.0399  135.8479  151.6642 H   0  0  0  0  0  0  0  0  0  0  0  0
  144.6640  134.1916  153.8521 H   0  0  0  0  0  0  0  0  0  0  0  0
  143.7428  136.4997  153.6511 H   0  0  0  0  0  0  0  0  0  0  0  0
  142.5958  135.2943  153.0751 H   0  0  0  0  0  0  0  0  0  0  0  0
  143.5108  136.2599  151.9199 H   0  0  0  0  0  0  0  0  0  0  0  0
  147.9461  134.7285  152.1585 H   0  0  0  0  0  0  0  0  0  0  0  0
  1  2  1  0  0  0  0
  1 24  1  0  0  0  0
  1 25  1  0  0  0  0
  1 26  1  0  0  0  0
  2 23  1  0  0  0  0
  2  3  1  0  0  0  0
  2 27  1  0  0  0  0
  3  4  1  0  0  0  0
  3 28  1  0  0  0  0
  3 29  1  0  0  0  0
  4  5  1  0  0  0  0
  4 20  1  0  0  0  0
  4 52  1  0  0  0  0
  5  6  1  0  0  0  0
  5 17  1  0  0  0  0
  5 30  1  0  0  0  0
  6  7  2  0  0  0  0
  6  8  1  0  0  0  0
  8  9  1  0  0  0  0
  9 10  1  0  0  0  0
  9 31  1  0  0  0  0
  9 32  1  0  0  0  0
 10 11  1  0  0  0  0
 10 33  1  0  0  0  0
 10 34  1  0  0  0  0
 11 16  1  0  0  0  0
 11 12  2  0  0  0  0
 12 13  1  0  0  0  0
 12 35  1  0  0  0  0
 13 14  2  0  0  0  0
 13 36  1  0  0  0  0
 14 15  1  0  0  0  0
 14 37  1  0  0  0  0
 15 16  2  0  0  0  0
 15 38  1  0  0  0  0
 17 18  1  0  0  0  0
 17 19  1  0  0  0  0
 17 39  1  0  0  0  0
 18 40  1  0  0  0  0
 18 41  1  0  0  0  0
 18 42  1  0  0  0  0
 19 43  1  0  0  0  0
 19 44  1  0  0  0  0
 19 45  1  0  0  0  0
 20 21  1  0  0  0  0
 20 46  1  0  0  0  0
 20 47  1  0  0  0  0
 21 22  1  0  0  0  0
 21 23  1  0  0  0  0
 21 48  1  0  0  0  0
 22 49  1  0  0  0  0
 22 50  1  0  0  0  0
 22 51  1  0  0  0  0
M  CHG  1   4   1
M  CHG  1   8  -1
M  END
> <s_m_source_file>
AV-unprocessed.smi

> <i_m_source_file_index>
1762

> <i_lp_mmshare_version>
43012

> <i_f3d_flags>
0

> <s_epik_input>
W0NIM11bQ0BASF0xW0NIMl1OKFtDSDJdW0NASF0oTzEpW0NIM10pW0NAQEhdKFtDSF0oW0NIM10pW0NIM10pQyg9TylbTkhdW0NIMl1bQ0gyXWMyW2NIXVtjSF1bY0hdW2NIXW4y

> <s_epik_cmdline>
J2VwaWtfcHl0aG9uJywgJy1waCcsICc3LjAnLCAnLXRuJywgJzgnLCAnLW1hJywgJzIwMCcsICctbWV0YWxfYmluZGluZycsICctaW1hZScsICc8aW5maWxlLm1hZT4nLCAnLW9tYWUnLCAnPG91dGZpbGUubWFlPic=

> <r_epik_Ionization_Penalty>
7.82966

> <r_epik_Ionization_Penalty_Charging>
7.7461

> <r_epik_Ionization_Penalty_Neutral>
0.0835571

> <r_epik_State_Penalty>
8.52273

> <r_epik_Charging_Adjusted_Penalty>
16.2688

> <i_epik_Tot_Q>
0

> <i_epik_Tot_abs_Q>
2

> <r_epik_Metal_State_Penalty>
4.47451

> <b_epik_Metal_Only>
1

> <s_lp_Force_Field>
OPLS_2005

> <r_lp_Energy>
23.0584

> <b_lp_Chiralities_Consistent>
1

> <s_lp_Variant>
AV-unprocessed.smi:1762-22

> <Gold.Version>
5.8.1

> <Gold.Id.Protein>
6NUR|6NUR_protein|mol2

> <Gold.PLP.Fitness>
41.8686

> <Gold.PLP.PLP>
-35.7899

> <Gold.PLP.part.hbond>
-1.0000

> <Gold.PLP.part.metal>
0.0000

> <Gold.PLP.part.buried>
-4.0618

> <Gold.PLP.part.nonpolar>
-32.1132

> <Gold.PLP.part.repulsive>
1.8969

> <Gold.PLP.ligand.clash>
0.0000

> <Gold.PLP.ligand.torsion>
1.6864

> <Gold.PLP.Chemscore.Hbond>
2.0000

> <Gold.PLP.Chemscore.CHOScore>
1.0000

> <Gold.PLP.Chemscore.Metal>
0.0000

> <Gold.Chemscore.Hbonds>
donor molecule, donor type, donor heavy atom, donor atom, acceptor molecule, acceptor atom, score
      L1  H     4    52       P1  7948  2.00

> <Gold.PLP.Chemscore.Internal.Correction>
0.4515

> <Gold.Rescore>
     Score         DG    S(hbond)    S(metal)    S(lipo)     H(rot)  DE(clash)    DE(int)     intcor
     14.13     -16.07       0.98        0.00      97.69       1.60       0.53       1.41       ----

> <Gold.Chemscore.Fitness>
14.1346

> <Gold.Chemscore.DG>
-16.0749

> <Gold.Chemscore.ZeroCoef>
-5.4800

> <Gold.Chemscore.Hbond>
0.9774

> <Gold.Chemscore.Metal>
0.0000

> <Gold.Chemscore.Lipo>
97.6860

> <Gold.Chemscore.Internal_Hbond>
0.0000

> <Gold.Chemscore.DEClash>
0.5284

> <Gold.Chemscore.DEInternal>
1.4118

> <Gold.Chemscore.Rot>
1.6012

> <Gold.Chemscore.Internal.Correction>
   9.000000E+99

> <Gold.Chemscore.Hbonds>
donor molecule, donor type, donor heavy atom, donor atom, acceptor molecule, acceptor atom, score
      L1  H     4    52       P1  7948  0.44

> <Gold.Chemscore.Hbond.Weighted>
-3.2646

> <Gold.Chemscore.Metal.Weighted>
-0.0000

> <Gold.Chemscore.Lipo.Weighted>
-11.4293

> <Gold.Chemscore.Internal_Hbond.Weighted>
0.0000

> <Gold.Chemscore.DEClash.Weighted>
0.5284

> <Gold.Chemscore.DEInternal.Weighted>
1.4118

> <Gold.Chemscore.Rot.Weighted>
4.0990

> <Gold.Chemscore.Internal.Correction.Weighted>
   9.000000E+99

> <Gold.Protein.RotatedTorsions>
[ 6907 6896 6895 6894 ] final -157.96 input  -60.11 | X-H torsion
[ 7974 7965 7964 7962 ] final -119.47 input  175.53 | X-H torsion
[ 8008 7997 7996 7995 ] final  -94.52 input   59.86 | X-H torsion
[ 10167 10162 10161 10158 ] final -126.92 input  -65.29 | X-H torsion
[ 10718 10713 10712 10709 ] final  -69.53 input   66.30 | X-H torsion
[ 10763 10752 10751 10750 ] final   35.56 input  -60.55 | X-H torsion
[ 11005 11000 10999 10996 ] final  -53.58 input  -57.11 | X-H torsion

> <Gold.Protein.ActiveResidues>
 VAL166  LYS551  ARG553  GLY616  TRP617  ASP618  TYR619  PRO620  LYS621  CYS622 
 ASP623  PHE694  ASN695  SER759  ASP760  ASP761  ALA762  ILE779  LEU786  VAL792 
 PHE793  MET794  SER795  GLU796  ALA797  LYS798  CYS799  TRP800  GLU811  SER814 

> <Gold.Protein.RotatedAtoms>
  151.3109  133.4081  159.2646 H   0  0  0  0  0  0  0  0  0  0  0  0  # atno 6907 bound_to 6896
  151.0115  134.9401  159.8020 H   0  0  0  0  0  0  0  0  0  0  0  0  # atno 6908 bound_to 6896
  152.5302  134.3073  159.9153 H   0  0  0  0  0  0  0  0  0  0  0  0  # atno 6909 bound_to 6896
  145.0621  140.8298  143.4146 H   0  0  0  0  0  0  0  0  0  0  0  0  # atno 7974 bound_to 7965
  154.7494  140.0488  157.0880 H   0  0  0  0  0  0  0  0  0  0  0  0  # atno 8008 bound_to 7997
  155.0076  140.3132  155.4823 H   0  0  0  0  0  0  0  0  0  0  0  0  # atno 8009 bound_to 7997
  156.2882  140.2190  156.5189 H   0  0  0  0  0  0  0  0  0  0  0  0  # atno 8010 bound_to 7997
  139.9664  143.5893  152.2428 H   0  0  0  0  0  0  0  0  0  0  0  0  # atno 10167 bound_to 10162
  156.0451  130.4314  150.2162 H   0  0  0  0  0  0  0  0  0  0  0  0  # atno 10718 bound_to 10713
  153.0114  135.6330  154.1847 H   0  0  0  0  0  0  0  0  0  0  0  0  # atno 10763 bound_to 10752
  154.1589  135.2824  155.3116 H   0  0  0  0  0  0  0  0  0  0  0  0  # atno 10764 bound_to 10752
  154.5997  135.5591  153.7422 H   0  0  0  0  0  0  0  0  0  0  0  0  # atno 10765 bound_to 10752
  141.0983  133.6621  156.4193 H   0  0  0  0  0  0  0  0  0  0  0  0  # atno 11005 bound_to 11000
  145.1396  139.2581  143.5497 LP  0  0  0  0  0  0  0  0  0  0  0  0  # atno 17320 bound_to 7965
  146.3525  140.1069  142.8605 LP  0  0  0  0  0  0  0  0  0  0  0  0  # atno 17321 bound_to 7965
  139.6514  144.7661  151.2140 LP  0  0  0  0  0  0  0  0  0  0  0  0  # atno 17342 bound_to 10162
  140.7536  143.6154  150.8564 LP  0  0  0  0  0  0  0  0  0  0  0  0  # atno 17343 bound_to 10162
  157.0253  130.9991  151.3328 LP  0  0  0  0  0  0  0  0  0  0  0  0  # atno 17370 bound_to 10713
  157.5316  130.8062  149.7923 LP  0  0  0  0  0  0  0  0  0  0  0  0  # atno 17371 bound_to 10713
  140.5085  134.6418  157.5275 LP  0  0  0  0  0  0  0  0  0  0  0  0  # atno 17394 bound_to 11000
  139.9826  134.7112  155.9831 LP  0  0  0  0  0  0  0  0  0  0  0  0  # atno 17395 bound_to 11000

$$$$
