AV-unprocessed.smi:71|AV-procd|sdf|662|dock7
  -GOLD-   2262016563D 1   1.00000     0.00000
 Structure written by MMmdl.
 31 32  0  0  0  0  0  0  0  0  1 V2000
  150.5400  145.1893  158.5051 N   0  0  0  0  0  0  0  0  0  0  0  0
  151.0801  143.9076  158.5674 C   0  0  0  0  0  0  0  0  0  0  0  0
  152.2936  143.6834  159.2480 C   0  0  0  0  0  0  0  0  0  0  0  0
  152.8093  142.3740  159.2826 C   0  0  0  0  0  0  0  0  0  0  0  0
  152.0926  141.3451  158.6424 C   0  0  0  0  0  0  0  0  0  0  0  0
  150.8767  141.6659  157.9968 C   0  0  0  0  0  0  0  0  0  0  0  0
  150.0892  140.6068  157.2828 C   0  0  0  0  0  0  0  0  0  0  0  0
  148.9361  140.3702  157.6440 O   0  0  0  0  0  0  0  0  0  0  0  0
  150.6941  139.9472  156.2668 N   0  0  0  0  0  0  0  0  0  0  0  0
  152.1180  140.0290  155.9270 C   0  0  0  0  0  0  0  0  0  0  0  0
  152.3322  139.0740  154.7539 C   0  0  0  0  0  0  0  0  0  0  0  0
  151.1818  138.0855  154.8621 C   0  0  0  0  0  0  0  0  0  0  0  0
  150.0357  138.8936  155.4844 C   0  0  2  0  0  0  0  0  0  0  0  0
  149.0887  139.5066  154.4309 C   0  0  0  0  0  0  0  0  0  0  0  0
  149.7957  140.3964  153.5933 O   0  0  0  0  0  0  0  0  0  0  0  0
  150.3872  142.9263  157.9519 N   0  0  0  0  0  0  0  0  0  0  0  0
  149.6724  145.3753  158.0229 H   0  0  0  0  0  0  0  0  0  0  0  0
  150.9833  145.9684  158.9699 H   0  0  0  0  0  0  0  0  0  0  0  0
  152.8216  144.4938  159.7292 H   0  0  0  0  0  0  0  0  0  0  0  0
  153.7399  142.1634  159.7884 H   0  0  0  0  0  0  0  0  0  0  0  0
  152.4715  140.3332  158.6457 H   0  0  0  0  0  0  0  0  0  0  0  0
  152.4265  141.0375  155.6533 H   0  0  0  0  0  0  0  0  0  0  0  0
  152.7106  139.7133  156.7873 H   0  0  0  0  0  0  0  0  0  0  0  0
  152.2530  139.6237  153.8150 H   0  0  0  0  0  0  0  0  0  0  0  0
  153.3093  138.5905  154.7750 H   0  0  0  0  0  0  0  0  0  0  0  0
  150.9265  137.6311  153.9043 H   0  0  0  0  0  0  0  0  0  0  0  0
  151.4647  137.2790  155.5400 H   0  0  0  0  0  0  0  0  0  0  0  0
  149.4608  138.2446  156.1485 H   0  0  0  0  0  0  0  0  0  0  0  0
  148.6577  138.7304  153.7982 H   0  0  0  0  0  0  0  0  0  0  0  0
  148.2585  140.0310  154.9052 H   0  0  0  0  0  0  0  0  0  0  0  0
  149.5816  140.1980  152.6945 H   0  0  0  0  0  0  0  0  0  0  0  0
  1  2  1  0  0  0  0
  1 17  1  0  0  0  0
  1 18  1  0  0  0  0
  2 16  1  0  0  0  0
  2  3  2  0  0  0  0
  3  4  1  0  0  0  0
  3 19  1  0  0  0  0
  4  5  2  0  0  0  0
  4 20  1  0  0  0  0
  5  6  1  0  0  0  0
  5 21  1  0  0  0  0
  6  7  1  0  0  0  0
  6 16  2  0  0  0  0
  7  8  2  0  0  0  0
  7  9  1  0  0  0  0
  9 13  1  0  0  0  0
  9 10  1  0  0  0  0
 10 11  1  0  0  0  0
 10 22  1  0  0  0  0
 10 23  1  0  0  0  0
 11 12  1  0  0  0  0
 11 24  1  0  0  0  0
 11 25  1  0  0  0  0
 12 13  1  0  0  0  0
 12 26  1  0  0  0  0
 12 27  1  0  0  0  0
 13 14  1  0  0  0  0
 13 28  1  0  0  0  0
 14 15  1  0  0  0  0
 14 29  1  0  0  0  0
 14 30  1  0  0  0  0
 15 31  1  0  0  0  0
M  END
> <s_m_source_file>
AV-unprocessed.smi

> <i_m_source_file_index>
71

> <i_lp_mmshare_version>
43012

> <i_f3d_flags>
0

> <s_epik_input>
W05IMl1jMVtjSF1bY0hdW2NIXWMobjEpQyg9TylOMltDSDJdW0NIMl1bQ0gyXVtDQEhdMltDSDJdW09IXQ==

> <s_epik_cmdline>
J2VwaWtfcHl0aG9uJywgJy1waCcsICc3LjAnLCAnLXRuJywgJzgnLCAnLW1hJywgJzIwMCcsICctbWV0YWxfYmluZGluZycsICctaW1hZScsICc8aW5maWxlLm1hZT4nLCAnLW9tYWUnLCAnPG91dGZpbGUubWFlPic=

> <r_lp_tautomer_probability>
1

> <r_epik_Ionization_Penalty>
2.21614e-05

> <r_epik_Ionization_Penalty_Charging>
0

> <r_epik_Ionization_Penalty_Neutral>
2.21614e-05

> <r_epik_State_Penalty>
-0

> <r_epik_Charging_Adjusted_Penalty>
0

> <i_epik_Tot_Q>
0

> <i_epik_Tot_abs_Q>
0

> <r_epik_Metal_State_Penalty>
-0

> <b_epik_Metal_Only>
0

> <s_lp_Force_Field>
OPLS_2005

> <r_lp_Energy>
36.7339

> <b_lp_Chiralities_Consistent>
1

> <s_lp_Variant>
AV-unprocessed.smi:71-2

> <Gold.Version>
5.8.1

> <Gold.Id.Protein>
6NUR|6NUR_protein|mol2

> <Gold.PLP.Fitness>
38.0780

> <Gold.PLP.PLP>
-31.5351

> <Gold.PLP.part.hbond>
-2.9672

> <Gold.PLP.part.metal>
0.0000

> <Gold.PLP.part.buried>
-3.8446

> <Gold.PLP.part.nonpolar>
-25.9127

> <Gold.PLP.part.repulsive>
0.3656

> <Gold.PLP.ligand.clash>
0.0000

> <Gold.PLP.ligand.torsion>
1.1592

> <Gold.PLP.Chemscore.Hbond>
2.5600

> <Gold.PLP.Chemscore.CHOScore>
0.0000

> <Gold.PLP.Chemscore.Metal>
0.0000

> <Gold.Chemscore.Hbonds>
donor molecule, donor type, donor heavy atom, donor atom, acceptor molecule, acceptor atom, score
      L1  H     1    17       P1  8029  0.95
      L1  H    15    31       P1  7957  1.00
      P1  H  7989  7998       L1    15  0.56

> <Gold.PLP.Chemscore.Internal.Correction>
1.1814

> <Gold.Rescore>
     Score         DG    S(hbond)    S(metal)    S(lipo)     H(rot)  DE(clash)    DE(int)     intcor
     14.70     -17.75       2.36        0.00      70.21       1.50       0.02       3.04       ----

> <Gold.Chemscore.Fitness>
14.6976

> <Gold.Chemscore.DG>
-17.7533

> <Gold.Chemscore.ZeroCoef>
-5.4800

> <Gold.Chemscore.Hbond>
2.3617

> <Gold.Chemscore.Metal>
0.0000

> <Gold.Chemscore.Lipo>
70.2123

> <Gold.Chemscore.Internal_Hbond>
0.0000

> <Gold.Chemscore.DEClash>
0.0174

> <Gold.Chemscore.DEInternal>
3.0383

> <Gold.Chemscore.Rot>
1.4959

> <Gold.Chemscore.Internal.Correction>
   9.000000E+99

> <Gold.Chemscore.Hbonds>
donor molecule, donor type, donor heavy atom, donor atom, acceptor molecule, acceptor atom, score
      L1  H     1    17       P1  8029  0.21
      L1  H    15    31       P1  7957  0.94
      P1  H  7989  7998       L1    15  0.19

> <Gold.Chemscore.Hbond.Weighted>
-7.8880

> <Gold.Chemscore.Metal.Weighted>
-0.0000

> <Gold.Chemscore.Lipo.Weighted>
-8.2148

> <Gold.Chemscore.Internal_Hbond.Weighted>
0.0000

> <Gold.Chemscore.DEClash.Weighted>
0.0174

> <Gold.Chemscore.DEInternal.Weighted>
3.0383

> <Gold.Chemscore.Rot.Weighted>
3.8295

> <Gold.Chemscore.Internal.Correction.Weighted>
   9.000000E+99

> <Gold.Protein.RotatedTorsions>
[ 6907 6896 6895 6894 ] final  138.56 input  -60.11 | X-H torsion
[ 7974 7965 7964 7962 ] final -132.64 input  175.53 | X-H torsion
[ 8008 7997 7996 7995 ] final   62.53 input   59.86 | X-H torsion
[ 10167 10162 10161 10158 ] final    0.82 input  -65.29 | X-H torsion
[ 10718 10713 10712 10709 ] final   -9.04 input   66.30 | X-H torsion
[ 10763 10752 10751 10750 ] final  170.41 input  -60.55 | X-H torsion
[ 11005 11000 10999 10996 ] final   82.84 input  -57.11 | X-H torsion

> <Gold.Protein.ActiveResidues>
 VAL166  LYS551  ARG553  GLY616  TRP617  ASP618  TYR619  PRO620  LYS621  CYS622 
 ASP623  PHE694  ASN695  SER759  ASP760  ASP761  ALA762  ILE779  LEU786  VAL792 
 PHE793  MET794  SER795  GLU796  ALA797  LYS798  CYS799  TRP800  GLU811  SER814 

> <Gold.Protein.RotatedAtoms>
  152.2651  133.5332  159.5404 H   0  0  0  0  0  0  0  0  0  0  0  0  # atno 6907 bound_to 6896
  150.7139  134.0775  159.3895 H   0  0  0  0  0  0  0  0  0  0  0  0  # atno 6908 bound_to 6896
  151.8692  135.0496  160.0528 H   0  0  0  0  0  0  0  0  0  0  0  0  # atno 6909 bound_to 6896
  144.9266  140.7079  143.4932 H   0  0  0  0  0  0  0  0  0  0  0  0  # atno 7974 bound_to 7965
  155.6157  140.3495  155.4636 H   0  0  0  0  0  0  0  0  0  0  0  0  # atno 8008 bound_to 7997
  156.0119  140.1235  157.0469 H   0  0  0  0  0  0  0  0  0  0  0  0  # atno 8009 bound_to 7997
  154.4284  140.1080  156.5827 H   0  0  0  0  0  0  0  0  0  0  0  0  # atno 8010 bound_to 7997
  140.6711  143.7045  150.7925 H   0  0  0  0  0  0  0  0  0  0  0  0  # atno 10167 bound_to 10162
  156.6938  130.5073  149.5936 H   0  0  0  0  0  0  0  0  0  0  0  0  # atno 10718 bound_to 10713
  154.3972  135.2754  155.2118 H   0  0  0  0  0  0  0  0  0  0  0  0  # atno 10763 bound_to 10752
  154.4159  135.6011  153.5984 H   0  0  0  0  0  0  0  0  0  0  0  0  # atno 10764 bound_to 10752
  152.9831  135.5961  154.4235 H   0  0  0  0  0  0  0  0  0  0  0  0  # atno 10765 bound_to 10752
  139.9050  134.8101  156.2228 H   0  0  0  0  0  0  0  0  0  0  0  0  # atno 11005 bound_to 11000
  145.3209  139.1789  143.4588 LP  0  0  0  0  0  0  0  0  0  0  0  0  # atno 17320 bound_to 7965
  146.3229  140.3226  142.8634 LP  0  0  0  0  0  0  0  0  0  0  0  0  # atno 17321 bound_to 7965
  140.0731  143.5042  152.2569 LP  0  0  0  0  0  0  0  0  0  0  0  0  # atno 17342 bound_to 10162
  139.5980  144.7573  151.3239 LP  0  0  0  0  0  0  0  0  0  0  0  0  # atno 17343 bound_to 10162
  156.1778  130.6479  151.0915 LP  0  0  0  0  0  0  0  0  0  0  0  0  # atno 17370 bound_to 10713
  157.6999  131.0780  150.6854 LP  0  0  0  0  0  0  0  0  0  0  0  0  # atno 17371 bound_to 10713
  141.0395  133.6945  156.1572 LP  0  0  0  0  0  0  0  0  0  0  0  0  # atno 17394 bound_to 11000
  140.6977  134.4598  157.5587 LP  0  0  0  0  0  0  0  0  0  0  0  0  # atno 17395 bound_to 11000

$$$$
