AV-unprocessed.smi:2445|AV-procd|sdf|9634|dock3
  -GOLD-   2272013263D 1   1.00000     0.00000
 Structure written by MMmdl.
 40 41  0  0  0  0  0  0  0  0  1 V2000
  154.5942  140.5183  162.1783 C   0  0  0  0  0  0  0  0  0  0  0  0
  153.7320  141.5727  161.5718 C   0  0  0  0  0  0  0  0  0  0  0  0
  153.0492  142.5737  162.2172 C   0  0  0  0  0  0  0  0  0  0  0  0
  152.3260  143.4064  161.3606 N   0  0  0  0  0  0  0  0  0  0  0  0
  152.4497  143.0531  160.0780 C   0  0  0  0  0  0  0  0  0  0  0  0
  151.7833  143.7736  158.9482 C   0  0  1  0  0  0  0  0  0  0  0  0
  152.1443  145.2692  158.9391 C   0  0  0  0  0  0  0  0  0  0  0  0
  152.0191  143.0556  157.6015 C   0  0  0  0  0  0  0  0  0  0  0  0
  150.8261  143.0233  156.7614 N   0  0  0  0  0  0  0  0  0  0  0  0
  150.2108  141.9090  156.3434 C   0  0  0  0  0  0  0  0  0  0  0  0
  150.5928  140.7691  156.6088 O   0  0  0  0  0  0  0  0  0  0  0  0
  149.1234  142.1879  155.6124 N   0  0  0  0  0  0  0  0  0  0  0  0
  148.2180  141.1936  155.0451 C   0  0  2  0  0  0  0  0  0  0  0  0
  148.9752  140.0607  154.3838 C   0  0  0  0  0  0  0  0  0  0  0  0
  147.9524  139.5242  153.3863 C   0  0  0  0  0  0  0  0  0  0  0  0
  147.1034  140.6193  153.0555 O   0  0  0  0  0  0  0  0  0  0  0  0
  147.4150  141.7498  153.8631 C   0  0  1  0  0  0  0  0  0  0  0  0
  146.1305  142.4895  154.2561 C   0  0  0  0  0  0  0  0  0  0  0  0
  153.4845  141.6479  159.8470 S   0  0  0  0  0  0  0  0  0  0  0  0
  154.6349  140.6194  163.2633 H   0  0  0  0  0  0  0  0  0  0  0  0
  155.6128  140.5846  161.7956 H   0  0  0  0  0  0  0  0  0  0  0  0
  154.2096  139.5248  161.9471 H   0  0  0  0  0  0  0  0  0  0  0  0
  153.0223  142.7669  163.2794 H   0  0  0  0  0  0  0  0  0  0  0  0
  150.7130  143.7211  159.1519 H   0  0  0  0  0  0  0  0  0  0  0  0
  151.9170  145.7305  159.9005 H   0  0  0  0  0  0  0  0  0  0  0  0
  151.5842  145.8133  158.1784 H   0  0  0  0  0  0  0  0  0  0  0  0
  153.2060  145.4187  158.7409 H   0  0  0  0  0  0  0  0  0  0  0  0
  152.8069  143.5614  157.0425 H   0  0  0  0  0  0  0  0  0  0  0  0
  152.3703  142.0365  157.7732 H   0  0  0  0  0  0  0  0  0  0  0  0
  150.4358  143.9143  156.4914 H   0  0  0  0  0  0  0  0  0  0  0  0
  148.8935  143.1575  155.4508 H   0  0  0  0  0  0  0  0  0  0  0  0
  147.5489  140.7789  155.8020 H   0  0  0  0  0  0  0  0  0  0  0  0
  149.8441  140.4434  153.8458 H   0  0  0  0  0  0  0  0  0  0  0  0
  149.3183  139.3035  155.0892 H   0  0  0  0  0  0  0  0  0  0  0  0
  148.4233  139.1036  152.4976 H   0  0  0  0  0  0  0  0  0  0  0  0
  147.3443  138.7447  153.8469 H   0  0  0  0  0  0  0  0  0  0  0  0
  148.0484  142.4066  153.2641 H   0  0  0  0  0  0  0  0  0  0  0  0
  146.3518  143.3730  154.8548 H   0  0  0  0  0  0  0  0  0  0  0  0
  145.4675  141.8480  154.8369 H   0  0  0  0  0  0  0  0  0  0  0  0
  145.5857  142.8184  153.3710 H   0  0  0  0  0  0  0  0  0  0  0  0
  1  2  1  0  0  0  0
  1 20  1  0  0  0  0
  1 21  1  0  0  0  0
  1 22  1  0  0  0  0
  2 19  1  0  0  0  0
  2  3  2  0  0  0  0
  3  4  1  0  0  0  0
  3 23  1  0  0  0  0
  4  5  2  0  0  0  0
  5  6  1  0  0  0  0
  5 19  1  0  0  0  0
  6  7  1  0  0  0  0
  6  8  1  0  0  0  0
  6 24  1  0  0  0  0
  7 25  1  0  0  0  0
  7 26  1  0  0  0  0
  7 27  1  0  0  0  0
  8  9  1  0  0  0  0
  8 28  1  0  0  0  0
  8 29  1  0  0  0  0
  9 10  1  0  0  0  0
  9 30  1  0  0  0  0
 10 11  2  0  0  0  0
 10 12  1  0  0  0  0
 12 13  1  0  0  0  0
 12 31  1  0  0  0  0
 13 17  1  0  0  0  0
 13 14  1  0  0  0  0
 13 32  1  0  0  0  0
 14 15  1  0  0  0  0
 14 33  1  0  0  0  0
 14 34  1  0  0  0  0
 15 16  1  0  0  0  0
 15 35  1  0  0  0  0
 15 36  1  0  0  0  0
 16 17  1  0  0  0  0
 17 18  1  0  0  0  0
 17 37  1  0  0  0  0
 18 38  1  0  0  0  0
 18 39  1  0  0  0  0
 18 40  1  0  0  0  0
M  END
> <s_m_source_file>
AV-unprocessed.smi

> <i_m_source_file_index>
2445

> <i_lp_mmshare_version>
43012

> <i_f3d_flags>
0

> <s_epik_input>
W0NIM11jMVtjSF1uYyhzMSlbQ0BIXShbQ0gzXSlbQ0gyXVtOSF1DKD1PKVtOSF1bQ0BASF0yW0NIMl1bQ0gyXU9bQ0BIXTJbQ0gzXQ==

> <s_epik_cmdline>
J2VwaWtfcHl0aG9uJywgJy1waCcsICc3LjAnLCAnLXRuJywgJzgnLCAnLW1hJywgJzIwMCcsICctbWV0YWxfYmluZGluZycsICctaW1hZScsICc8aW5maWxlLm1hZT4nLCAnLW9tYWUnLCAnPG91dGZpbGUubWFlPic=

> <r_epik_Ionization_Penalty>
0.000649483

> <r_epik_Ionization_Penalty_Charging>
0

> <r_epik_Ionization_Penalty_Neutral>
0.000649483

> <r_epik_State_Penalty>
0.000379895

> <r_epik_Charging_Adjusted_Penalty>
0.000379895

> <i_epik_Tot_Q>
0

> <i_epik_Tot_abs_Q>
0

> <r_epik_Metal_State_Penalty>
-0

> <b_epik_Metal_Only>
0

> <s_lp_Force_Field>
OPLS_2005

> <r_lp_Energy>
5.33919

> <b_lp_Chiralities_Consistent>
1

> <s_lp_Variant>
AV-unprocessed.smi:2445-2

> <Gold.Version>
5.8.1

> <Gold.Id.Protein>
6NUR|6NUR_protein|mol2

> <Gold.PLP.Fitness>
49.4780

> <Gold.PLP.PLP>
-45.2993

> <Gold.PLP.part.hbond>
-2.0000

> <Gold.PLP.part.metal>
0.0000

> <Gold.PLP.part.buried>
-4.6703

> <Gold.PLP.part.nonpolar>
-39.2880

> <Gold.PLP.part.repulsive>
0.5228

> <Gold.PLP.ligand.clash>
0.0000

> <Gold.PLP.ligand.torsion>
0.7977

> <Gold.PLP.Chemscore.Hbond>
1.8800

> <Gold.PLP.Chemscore.CHOScore>
0.0000

> <Gold.PLP.Chemscore.Metal>
0.0000

> <Gold.Chemscore.Hbonds>
donor molecule, donor type, donor heavy atom, donor atom, acceptor molecule, acceptor atom, score
      L1  H     9    30       P1  8028  0.88
      L1  H    12    31       P1  8028  1.00

> <Gold.PLP.Chemscore.Internal.Correction>
0.1340

> <Gold.Rescore>
     Score         DG    S(hbond)    S(metal)    S(lipo)     H(rot)  DE(clash)    DE(int)     intcor
     18.75     -22.08       1.90        0.00     121.11       1.53       1.34       1.98       ----

> <Gold.Chemscore.Fitness>
18.7486

> <Gold.Chemscore.DG>
-22.0753

> <Gold.Chemscore.ZeroCoef>
-5.4800

> <Gold.Chemscore.Hbond>
1.9008

> <Gold.Chemscore.Metal>
0.0000

> <Gold.Chemscore.Lipo>
121.1106

> <Gold.Chemscore.Internal_Hbond>
0.0000

> <Gold.Chemscore.DEClash>
1.3434

> <Gold.Chemscore.DEInternal>
1.9833

> <Gold.Chemscore.Rot>
1.5325

> <Gold.Chemscore.Internal.Correction>
   9.000000E+99

> <Gold.Chemscore.Hbonds>
donor molecule, donor type, donor heavy atom, donor atom, acceptor molecule, acceptor atom, score
      L1  H     9    30       P1  8028  0.86
      L1  H    12    31       P1  8028  0.96

> <Gold.Chemscore.Hbond.Weighted>
-6.3487

> <Gold.Chemscore.Metal.Weighted>
-0.0000

> <Gold.Chemscore.Lipo.Weighted>
-14.1699

> <Gold.Chemscore.Internal_Hbond.Weighted>
0.0000

> <Gold.Chemscore.DEClash.Weighted>
1.3434

> <Gold.Chemscore.DEInternal.Weighted>
1.9833

> <Gold.Chemscore.Rot.Weighted>
3.9233

> <Gold.Chemscore.Internal.Correction.Weighted>
   9.000000E+99

> <Gold.Protein.RotatedTorsions>
[ 6907 6896 6895 6894 ] final  -32.14 input  -60.11 | X-H torsion
[ 7974 7965 7964 7962 ] final   54.30 input  175.53 | X-H torsion
[ 8008 7997 7996 7995 ] final   30.59 input   59.86 | X-H torsion
[ 10167 10162 10161 10158 ] final   66.12 input  -65.29 | X-H torsion
[ 10718 10713 10712 10709 ] final -157.95 input   66.30 | X-H torsion
[ 10763 10752 10751 10750 ] final  -71.99 input  -60.55 | X-H torsion
[ 11005 11000 10999 10996 ] final -130.28 input  -57.11 | X-H torsion

> <Gold.Protein.ActiveResidues>
 VAL166  LYS551  ARG553  GLY616  TRP617  ASP618  TYR619  PRO620  LYS621  CYS622 
 ASP623  PHE694  ASN695  SER759  ASP760  ASP761  ALA762  ILE779  LEU786  VAL792 
 PHE793  MET794  SER795  GLU796  ALA797  LYS798  CYS799  TRP800  GLU811  SER814 

> <Gold.Protein.RotatedAtoms>
  151.0827  134.9868  159.8363 H   0  0  0  0  0  0  0  0  0  0  0  0  # atno 6907 bound_to 6896
  152.5421  134.2161  159.8779 H   0  0  0  0  0  0  0  0  0  0  0  0  # atno 6908 bound_to 6896
  151.2193  133.4468  159.2634 H   0  0  0  0  0  0  0  0  0  0  0  0  # atno 6909 bound_to 6896
  145.9623  139.4070  143.0241 H   0  0  0  0  0  0  0  0  0  0  0  0  # atno 7974 bound_to 7965
  155.0929  140.3222  155.4568 H   0  0  0  0  0  0  0  0  0  0  0  0  # atno 8008 bound_to 7997
  156.2738  140.2074  156.6002 H   0  0  0  0  0  0  0  0  0  0  0  0  # atno 8009 bound_to 7997
  154.6889  140.0518  157.0330 H   0  0  0  0  0  0  0  0  0  0  0  0  # atno 8010 bound_to 7997
  140.1038  144.4880  150.7020 H   0  0  0  0  0  0  0  0  0  0  0  0  # atno 10167 bound_to 10162
  156.5474  130.8590  151.2769 H   0  0  0  0  0  0  0  0  0  0  0  0  # atno 10718 bound_to 10713
  154.4394  135.5944  153.6120 H   0  0  0  0  0  0  0  0  0  0  0  0  # atno 10763 bound_to 10752
  152.9804  135.5994  154.3741 H   0  0  0  0  0  0  0  0  0  0  0  0  # atno 10764 bound_to 10752
  154.3589  135.2841  155.2310 H   0  0  0  0  0  0  0  0  0  0  0  0  # atno 10765 bound_to 10752
  140.9360  134.1257  157.4193 H   0  0  0  0  0  0  0  0  0  0  0  0  # atno 11005 bound_to 11000
  145.8023  140.9765  143.0992 LP  0  0  0  0  0  0  0  0  0  0  0  0  # atno 17320 bound_to 7965
  144.6818  139.9816  143.7483 LP  0  0  0  0  0  0  0  0  0  0  0  0  # atno 17321 bound_to 7965
  140.6963  143.2406  151.4991 LP  0  0  0  0  0  0  0  0  0  0  0  0  # atno 17342 bound_to 10162
  139.5656  144.2050  152.1760 LP  0  0  0  0  0  0  0  0  0  0  0  0  # atno 17343 bound_to 10162
  157.7394  130.9831  150.2311 LP  0  0  0  0  0  0  0  0  0  0  0  0  # atno 17370 bound_to 10713
  156.2916  130.3746  149.7836 LP  0  0  0  0  0  0  0  0  0  0  0  0  # atno 17371 bound_to 10713
  139.8808  135.0021  156.6105 LP  0  0  0  0  0  0  0  0  0  0  0  0  # atno 17394 bound_to 11000
  140.7799  133.8668  155.8559 LP  0  0  0  0  0  0  0  0  0  0  0  0  # atno 17395 bound_to 11000

$$$$
