AV-unprocessed.smi:2330|AV-procd|sdf|9311|dock2
  -GOLD-   2272012533D 1   1.00000     0.00000
 Structure written by MMmdl.
 42 43  0  0  0  0  0  0  0  0  1 V2000
  150.7555  141.7491  156.7673 C   0  0  0  0  0  0  0  0  0  0  0  0
  150.2134  140.5878  155.9221 C   0  0  2  0  0  0  0  0  0  0  0  0
  149.1959  139.7423  156.7120 C   0  0  0  0  0  0  0  0  0  0  0  0
  148.6513  138.5769  155.8696 C   0  0  0  0  0  0  0  0  0  0  0  0
  149.7886  137.6929  155.3239 C   0  0  1  0  0  0  0  0  0  0  0  0
  149.2428  136.6570  154.4526 N   0  0  0  0  0  0  0  0  0  0  0  0
  148.5180  135.6026  154.8509 C   0  0  0  0  0  0  0  0  0  0  0  0
  148.2050  135.3747  156.0193 O   0  0  0  0  0  0  0  0  0  0  0  0
  148.1915  134.8127  153.8195 N   0  0  0  0  0  0  0  0  0  0  0  0
  147.4901  133.5369  153.9285 C   0  0  0  0  0  0  0  0  0  0  0  0
  147.2333  132.8774  152.5552 C   0  0  1  0  0  0  0  0  0  0  0  0
  146.9449  131.3731  152.6581 C   0  0  0  0  0  0  0  0  0  0  0  0
  146.2021  133.5974  151.7390 C   0  0  0  0  0  0  0  0  0  0  0  0
  146.1789  134.9239  151.5732 N   0  0  0  0  0  0  0  0  0  0  0  0
  145.1334  135.3422  150.7466 C   0  0  0  0  0  0  0  0  0  0  0  0
  144.3577  134.3112  150.2810 C   0  0  0  0  0  0  0  0  0  0  0  0
  144.9143  132.7685  150.8683 S   0  0  0  0  0  0  0  0  0  0  0  0
  150.8114  138.5361  154.5412 C   0  0  0  0  0  0  0  0  0  0  0  0
  151.3524  139.6962  155.3920 C   0  0  0  0  0  0  0  0  0  0  0  0
  151.2800  141.3852  157.6512 H   0  0  0  0  0  0  0  0  0  0  0  0
  149.9479  142.4003  157.1032 H   0  0  0  0  0  0  0  0  0  0  0  0
  151.4532  142.3599  156.1936 H   0  0  0  0  0  0  0  0  0  0  0  0
  149.6975  141.0205  155.0636 H   0  0  0  0  0  0  0  0  0  0  0  0
  149.6653  139.3477  157.6143 H   0  0  0  0  0  0  0  0  0  0  0  0
  148.3679  140.3690  157.0447 H   0  0  0  0  0  0  0  0  0  0  0  0
  147.9679  137.9773  156.4721 H   0  0  0  0  0  0  0  0  0  0  0  0
  148.0637  138.9760  155.0415 H   0  0  0  0  0  0  0  0  0  0  0  0
  150.3079  137.2355  156.1683 H   0  0  0  0  0  0  0  0  0  0  0  0
  149.4448  136.7443  153.4676 H   0  0  0  0  0  0  0  0  0  0  0  0
  148.4913  135.0877  152.8956 H   0  0  0  0  0  0  0  0  0  0  0  0
  148.0381  132.8589  154.5851 H   0  0  0  0  0  0  0  0  0  0  0  0
  146.5372  133.7365  154.4195 H   0  0  0  0  0  0  0  0  0  0  0  0
  148.1657  132.9615  151.9957 H   0  0  0  0  0  0  0  0  0  0  0  0
  146.8706  130.9197  151.6692 H   0  0  0  0  0  0  0  0  0  0  0  0
  146.0081  131.1839  153.1830 H   0  0  0  0  0  0  0  0  0  0  0  0
  147.7386  130.8575  153.1992 H   0  0  0  0  0  0  0  0  0  0  0  0
  145.0154  136.3956  150.5405 H   0  0  0  0  0  0  0  0  0  0  0  0
  143.4971  134.3651  149.6309 H   0  0  0  0  0  0  0  0  0  0  0  0
  151.6388  137.9065  154.2110 H   0  0  0  0  0  0  0  0  0  0  0  0
  150.3490  138.9372  153.6380 H   0  0  0  0  0  0  0  0  0  0  0  0
  152.0467  140.2905  154.7971 H   0  0  0  0  0  0  0  0  0  0  0  0
  151.9277  139.2957  156.2278 H   0  0  0  0  0  0  0  0  0  0  0  0
  1  2  1  0  0  0  0
  1 20  1  0  0  0  0
  1 21  1  0  0  0  0
  1 22  1  0  0  0  0
  2 19  1  0  0  0  0
  2  3  1  0  0  0  0
  2 23  1  0  0  0  0
  3  4  1  0  0  0  0
  3 24  1  0  0  0  0
  3 25  1  0  0  0  0
  4  5  1  0  0  0  0
  4 26  1  0  0  0  0
  4 27  1  0  0  0  0
  5  6  1  0  0  0  0
  5 18  1  0  0  0  0
  5 28  1  0  0  0  0
  6  7  1  0  0  0  0
  6 29  1  0  0  0  0
  7  8  2  0  0  0  0
  7  9  1  0  0  0  0
  9 10  1  0  0  0  0
  9 30  1  0  0  0  0
 10 11  1  0  0  0  0
 10 31  1  0  0  0  0
 10 32  1  0  0  0  0
 11 12  1  0  0  0  0
 11 13  1  0  0  0  0
 11 33  1  0  0  0  0
 12 34  1  0  0  0  0
 12 35  1  0  0  0  0
 12 36  1  0  0  0  0
 13 17  1  0  0  0  0
 13 14  2  0  0  0  0
 14 15  1  0  0  0  0
 15 16  2  0  0  0  0
 15 37  1  0  0  0  0
 16 17  1  0  0  0  0
 16 38  1  0  0  0  0
 18 19  1  0  0  0  0
 18 39  1  0  0  0  0
 18 40  1  0  0  0  0
 19 41  1  0  0  0  0
 19 42  1  0  0  0  0
M  END
> <s_m_source_file>
AV-unprocessed.smi

> <i_m_source_file_index>
2330

> <i_lp_mmshare_version>
43012

> <i_f3d_flags>
0

> <s_epik_input>
W0NIM11bQ0BASF0xW0NIMl1bQ0gyXVtDQEhdKFtDSDJdW0NIMl0xKVtOSF1DKD1PKVtOSF1bQ0gyXVtDQEhdKFtDSDNdKWMybltjSF1bY0hdczI=

> <s_epik_cmdline>
J2VwaWtfcHl0aG9uJywgJy1waCcsICc3LjAnLCAnLXRuJywgJzgnLCAnLW1hJywgJzIwMCcsICctbWV0YWxfYmluZGluZycsICctaW1hZScsICc8aW5maWxlLm1hZT4nLCAnLW9tYWUnLCAnPG91dGZpbGUubWFlPic=

> <r_lp_tautomer_probability>
1

> <r_epik_Ionization_Penalty>
0.000331107

> <r_epik_Ionization_Penalty_Charging>
0

> <r_epik_Ionization_Penalty_Neutral>
0.000331107

> <r_epik_State_Penalty>
-0

> <r_epik_Charging_Adjusted_Penalty>
0

> <i_epik_Tot_Q>
0

> <i_epik_Tot_abs_Q>
0

> <r_epik_Metal_State_Penalty>
-0

> <b_epik_Metal_Only>
0

> <s_lp_Force_Field>
OPLS_2005

> <r_lp_Energy>
-1.29202

> <b_lp_Chiralities_Consistent>
1

> <s_lp_Variant>
AV-unprocessed.smi:2330-2

> <Gold.Version>
5.8.1

> <Gold.Id.Protein>
6NUR|6NUR_protein|mol2

> <Gold.PLP.Fitness>
40.2682

> <Gold.PLP.PLP>
-29.3588

> <Gold.PLP.part.hbond>
-1.9928

> <Gold.PLP.part.metal>
0.0000

> <Gold.PLP.part.buried>
-2.3977

> <Gold.PLP.part.nonpolar>
-24.8931

> <Gold.PLP.part.repulsive>
0.9610

> <Gold.PLP.ligand.clash>
0.0000

> <Gold.PLP.ligand.torsion>
0.4513

> <Gold.PLP.Chemscore.Hbond>
1.9120

> <Gold.PLP.Chemscore.CHOScore>
1.9830

> <Gold.PLP.Chemscore.Metal>
0.0000

> <Gold.Chemscore.Hbonds>
donor molecule, donor type, donor heavy atom, donor atom, acceptor molecule, acceptor atom, score
      L1  H     6    29       P1  7948  0.91
      L1  H     9    30       P1  7948  1.00
      L1  C    15    37       P1 10171  0.91
      L1  C    16    38       P1 10186  1.00

> <Gold.PLP.Chemscore.Internal.Correction>
0.1269

> <Gold.Rescore>
     Score         DG    S(hbond)    S(metal)    S(lipo)     H(rot)  DE(clash)    DE(int)     intcor
     16.33     -16.68       1.88        0.00      73.99       1.45       0.02       0.34       ----

> <Gold.Chemscore.Fitness>
16.3257

> <Gold.Chemscore.DG>
-16.6834

> <Gold.Chemscore.ZeroCoef>
-5.4800

> <Gold.Chemscore.Hbond>
1.8767

> <Gold.Chemscore.Metal>
0.0000

> <Gold.Chemscore.Lipo>
73.9877

> <Gold.Chemscore.Internal_Hbond>
0.0000

> <Gold.Chemscore.DEClash>
0.0162

> <Gold.Chemscore.DEInternal>
0.3415

> <Gold.Chemscore.Rot>
1.4536

> <Gold.Chemscore.Internal.Correction>
   9.000000E+99

> <Gold.Chemscore.Hbonds>
donor molecule, donor type, donor heavy atom, donor atom, acceptor molecule, acceptor atom, score
      L1  H     6    29       P1  7948  0.76
      L1  H     9    30       P1  7948  0.66

> <Gold.Chemscore.Hbond.Weighted>
-6.2680

> <Gold.Chemscore.Metal.Weighted>
-0.0000

> <Gold.Chemscore.Lipo.Weighted>
-8.6566

> <Gold.Chemscore.Internal_Hbond.Weighted>
0.0000

> <Gold.Chemscore.DEClash.Weighted>
0.0162

> <Gold.Chemscore.DEInternal.Weighted>
0.3415

> <Gold.Chemscore.Rot.Weighted>
3.7212

> <Gold.Chemscore.Internal.Correction.Weighted>
   9.000000E+99

> <Gold.Protein.RotatedTorsions>
[ 6907 6896 6895 6894 ] final  126.17 input  -60.11 | X-H torsion
[ 7974 7965 7964 7962 ] final  144.32 input  175.53 | X-H torsion
[ 8008 7997 7996 7995 ] final    9.73 input   59.86 | X-H torsion
[ 10167 10162 10161 10158 ] final  -84.78 input  -65.29 | X-H torsion
[ 10718 10713 10712 10709 ] final  -28.64 input   66.30 | X-H torsion
[ 10763 10752 10751 10750 ] final   95.43 input  -60.55 | X-H torsion
[ 11005 11000 10999 10996 ] final  157.93 input  -57.11 | X-H torsion

> <Gold.Protein.ActiveResidues>
 VAL166  LYS551  ARG553  GLY616  TRP617  ASP618  TYR619  PRO620  LYS621  CYS622 
 ASP623  PHE694  ASN695  SER759  ASP760  ASP761  ALA762  ILE779  LEU786  VAL792 
 PHE793  MET794  SER795  GLU796  ALA797  LYS798  CYS799  TRP800  GLU811  SER814 

> <Gold.Protein.RotatedAtoms>
  152.3927  133.6703  159.6250 H   0  0  0  0  0  0  0  0  0  0  0  0  # atno 6907 bound_to 6896
  150.7832  133.8926  159.3326 H   0  0  0  0  0  0  0  0  0  0  0  0  # atno 6908 bound_to 6896
  151.6709  135.0977  160.0249 H   0  0  0  0  0  0  0  0  0  0  0  0  # atno 6909 bound_to 6896
  144.8846  139.5648  143.5827 H   0  0  0  0  0  0  0  0  0  0  0  0  # atno 7974 bound_to 7965
  154.7840  140.2824  155.6042 H   0  0  0  0  0  0  0  0  0  0  0  0  # atno 8008 bound_to 7997
  156.2954  140.2617  156.2600 H   0  0  0  0  0  0  0  0  0  0  0  0  # atno 8009 bound_to 7997
  154.9750  140.0375  157.2241 H   0  0  0  0  0  0  0  0  0  0  0  0  # atno 8010 bound_to 7997
  140.4099  143.2627  151.9031 H   0  0  0  0  0  0  0  0  0  0  0  0  # atno 10167 bound_to 10162
  156.4226  130.4429  149.7173 H   0  0  0  0  0  0  0  0  0  0  0  0  # atno 10718 bound_to 10713
  153.2531  135.4254  155.0817 H   0  0  0  0  0  0  0  0  0  0  0  0  # atno 10763 bound_to 10752
  154.8389  135.3430  154.6485 H   0  0  0  0  0  0  0  0  0  0  0  0  # atno 10764 bound_to 10752
  153.6906  135.7034  153.5148 H   0  0  0  0  0  0  0  0  0  0  0  0  # atno 10765 bound_to 10752
  140.1816  134.8471  157.2809 H   0  0  0  0  0  0  0  0  0  0  0  0  # atno 11005 bound_to 11000
  146.3016  139.7445  142.9087 LP  0  0  0  0  0  0  0  0  0  0  0  0  # atno 17320 bound_to 7965
  145.3892  141.0370  143.3133 LP  0  0  0  0  0  0  0  0  0  0  0  0  # atno 17321 bound_to 7965
  139.4783  144.5547  151.8332 LP  0  0  0  0  0  0  0  0  0  0  0  0  # atno 17342 bound_to 10162
  140.4649  144.1670  150.5910 LP  0  0  0  0  0  0  0  0  0  0  0  0  # atno 17343 bound_to 10162
  156.4107  130.7721  151.2733 LP  0  0  0  0  0  0  0  0  0  0  0  0  # atno 17370 bound_to 10713
  157.7508  131.0212  150.3741 LP  0  0  0  0  0  0  0  0  0  0  0  0  # atno 17371 bound_to 10713
  140.2261  134.3965  155.7543 LP  0  0  0  0  0  0  0  0  0  0  0  0  # atno 17394 bound_to 11000
  141.2223  133.7190  156.8566 LP  0  0  0  0  0  0  0  0  0  0  0  0  # atno 17395 bound_to 11000

$$$$
