AV-unprocessed.smi:72|AV-procd|sdf|719|dock4
  -GOLD-   2262017 43D 1   1.00000     0.00000
 Structure written by MMmdl.
 28 29  0  0  0  0  0  0  0  0  2 V2000
  154.1269  138.2466  155.5777 N   0  0  0  0  0  0  0  0  0  0  0  0
  152.9015  138.5362  155.5149 C   0  0  0  0  0  0  0  0  0  0  0  0
  151.9483  137.5603  155.0323 N   0  0  0  0  0  0  0  0  0  0  0  0
  150.6961  137.9004  155.0063 C   0  0  0  0  0  0  0  0  0  0  0  0
  150.2473  139.2111  155.4560 N   0  0  0  0  0  0  0  0  0  0  0  0
  148.7811  139.5928  155.4151 C   0  0  2  0  0  0  0  0  0  0  0  0
  148.0245  138.4634  155.1077 O   0  0  0  0  0  0  0  0  0  0  0  0
  146.8600  138.8756  154.4094 C   0  0  2  0  0  0  0  0  0  0  0  0
  146.2642  137.6881  153.6374 C   0  0  0  0  0  0  0  0  0  0  0  0
  146.9991  137.4569  152.4544 O   0  0  0  0  0  0  0  0  0  0  0  0
  147.3933  139.9890  153.5017 C   0  0  1  0  0  0  0  0  0  0  0  0
  146.3591  140.8936  153.1695 O   0  0  0  0  0  0  0  0  0  0  0  0
  148.4520  140.6746  154.3609 C   0  0  2  0  0  0  0  0  0  0  0  0
  149.5515  141.0755  153.5629 O   0  0  0  0  0  0  0  0  0  0  0  0
  151.2079  140.1611  155.8921 C   0  0  0  0  0  0  0  0  0  0  0  0
  150.8121  141.2803  156.2187 O   0  0  0  0  0  0  0  0  0  0  0  0
  152.5211  139.7983  155.9156 N   0  5  0  0  0  0  0  0  0  0  0  0
  148.5092  139.8966  156.4273 H   0  0  0  0  0  0  0  0  0  0  0  0
  146.1424  139.2875  155.1228 H   0  0  0  0  0  0  0  0  0  0  0  0
  147.8373  139.5613  152.6009 H   0  0  0  0  0  0  0  0  0  0  0  0
  148.0498  141.5399  154.8900 H   0  0  0  0  0  0  0  0  0  0  0  0
  154.6845  139.0121  155.9279 H   0  0  0  0  0  0  0  0  0  0  0  0
  149.9095  137.2373  154.6445 H   0  0  0  0  0  0  0  0  0  0  0  0
  146.3249  136.7816  154.2401 H   0  0  0  0  0  0  0  0  0  0  0  0
  145.2113  137.8533  153.4065 H   0  0  0  0  0  0  0  0  0  0  0  0
  147.8351  137.0838  152.6882 H   0  0  0  0  0  0  0  0  0  0  0  0
  145.6596  140.4062  152.7612 H   0  0  0  0  0  0  0  0  0  0  0  0
  149.4547  140.6868  152.7063 H   0  0  0  0  0  0  0  0  0  0  0  0
  1  2  2  0  0  0  0
  1 22  1  0  0  0  0
  2 17  1  0  0  0  0
  2  3  1  0  0  0  0
  3  4  2  0  0  0  0
  4  5  1  0  0  0  0
  4 23  1  0  0  0  0
  5  6  1  0  0  0  0
  5 15  1  0  0  0  0
  6 18  1  0  0  0  0
  6 13  1  0  0  0  0
  6  7  1  0  0  0  0
  7  8  1  0  0  0  0
  8 19  1  0  0  0  0
  8  9  1  0  0  0  0
  8 11  1  0  0  0  0
  9 10  1  0  0  0  0
  9 24  1  0  0  0  0
  9 25  1  0  0  0  0
 10 26  1  0  0  0  0
 11 20  1  0  0  0  0
 11 12  1  0  0  0  0
 11 13  1  0  0  0  0
 12 27  1  0  0  0  0
 13 21  1  0  0  0  0
 13 14  1  0  0  0  0
 14 28  1  0  0  0  0
 15 16  2  0  0  0  0
 15 17  1  0  0  0  0
M  CHG  1  17  -1
M  END
> <s_m_source_file>
AV-unprocessed.smi

> <i_m_source_file_index>
72

> <i_lp_mmshare_version>
43012

> <i_f3d_flags>
0

> <s_epik_input>
W05IMl1jMW5bY0hdbihjKD1PKW4xKVtDQEBIXTJPW0NASF0oW0NIMl1bT0hdKVtDQEBIXShbT0hdKVtDQEhdMltPSF0=

> <s_epik_cmdline>
J2VwaWtfcHl0aG9uJywgJy1waCcsICc3LjAnLCAnLXRuJywgJzgnLCAnLW1hJywgJzIwMCcsICctbWV0YWxfYmluZGluZycsICctaW1hZScsICc8aW5maWxlLm1hZT4nLCAnLW9tYWUnLCAnPG91dGZpbGUubWFlPic=

> <r_lp_tautomer_probability>
7.17554e-07

> <r_epik_Ionization_Penalty>
12.8705

> <r_epik_Ionization_Penalty_Charging>
5.64144

> <r_epik_Ionization_Penalty_Neutral>
7.22905

> <r_epik_State_Penalty>
3.30104

> <r_epik_Charging_Adjusted_Penalty>
8.94249

> <i_epik_Tot_Q>
-1

> <i_epik_Tot_abs_Q>
1

> <r_epik_Metal_State_Penalty>
0.529074

> <b_epik_Metal_Only>
1

> <s_epik_Chemistry_Notes>
This compound contains an acetal/aminal-like group ( X-CH(R)-Y where X, Y are N, S, or O) that may be acid/base labile, releasing an aldehyde.

> <s_lp_Force_Field>
OPLS_2005

> <r_lp_Energy>
37.3643

> <b_lp_Chiralities_Consistent>
1

> <s_lp_Variant>
AV-unprocessed.smi:72-57

> <Gold.Version>
5.8.1

> <Gold.Id.Protein>
6NUR|6NUR_protein|mol2

> <Gold.PLP.Fitness>
50.4106

> <Gold.PLP.PLP>
-29.6470

> <Gold.PLP.part.hbond>
-9.2165

> <Gold.PLP.part.metal>
0.0000

> <Gold.PLP.part.buried>
-5.8049

> <Gold.PLP.part.nonpolar>
-16.9305

> <Gold.PLP.part.repulsive>
0.3005

> <Gold.PLP.ligand.clash>
0.0000

> <Gold.PLP.ligand.torsion>
0.3376

> <Gold.PLP.Chemscore.Hbond>
6.0405

> <Gold.PLP.Chemscore.CHOScore>
1.0000

> <Gold.PLP.Chemscore.Metal>
0.0000

> <Gold.Chemscore.Hbonds>
donor molecule, donor type, donor heavy atom, donor atom, acceptor molecule, acceptor atom, score
      L1  H    10    26       P1  7948  0.66
      L1  H    12    27       P1 10175  0.82
      L1  H    14    28       P1  7957  1.00
      P1  H  7989  7998       L1    14  0.13
      P1  H  7997  8008       L1    17  0.70
      P1  H 10752 10764       L1     3  0.28

> <Gold.PLP.Chemscore.Internal.Correction>
0.3172

> <Gold.Rescore>
     Score         DG    S(hbond)    S(metal)    S(lipo)     H(rot)  DE(clash)    DE(int)     intcor
      9.24      -9.88       3.73        0.00      19.43       4.04       0.18       0.46       ----

> <Gold.Chemscore.Fitness>
9.2447

> <Gold.Chemscore.DG>
-9.8849

> <Gold.Chemscore.ZeroCoef>
-5.4800

> <Gold.Chemscore.Hbond>
3.7350

> <Gold.Chemscore.Metal>
0.0000

> <Gold.Chemscore.Lipo>
19.4297

> <Gold.Chemscore.Internal_Hbond>
0.0000

> <Gold.Chemscore.DEClash>
0.1815

> <Gold.Chemscore.DEInternal>
0.4587

> <Gold.Chemscore.Rot>
4.0403

> <Gold.Chemscore.Internal.Correction>
   9.000000E+99

> <Gold.Chemscore.Hbonds>
donor molecule, donor type, donor heavy atom, donor atom, acceptor molecule, acceptor atom, score
      L1  H    10    26       P1  7948  0.66
      L1  H    12    27       P1 10175  0.62
      L1  H    14    28       P1  7957  1.00
      P1  H  7989  7998       L1    14  0.01
      P1  H  7997  8008       L1    17  0.01
      P1  H 10752 10764       L1     3  0.22

> <Gold.Chemscore.Hbond.Weighted>
-12.4747

> <Gold.Chemscore.Metal.Weighted>
-0.0000

> <Gold.Chemscore.Lipo.Weighted>
-2.2733

> <Gold.Chemscore.Internal_Hbond.Weighted>
0.0000

> <Gold.Chemscore.DEClash.Weighted>
0.1815

> <Gold.Chemscore.DEInternal.Weighted>
0.4587

> <Gold.Chemscore.Rot.Weighted>
10.3431

> <Gold.Chemscore.Internal.Correction.Weighted>
   9.000000E+99

> <Gold.Protein.RotatedTorsions>
[ 6907 6896 6895 6894 ] final  -44.91 input  -60.11 | X-H torsion
[ 7974 7965 7964 7962 ] final -104.53 input  175.53 | X-H torsion
[ 8008 7997 7996 7995 ] final  -36.72 input   59.86 | X-H torsion
[ 10167 10162 10161 10158 ] final  -93.21 input  -65.29 | X-H torsion
[ 10718 10713 10712 10709 ] final  -92.60 input   66.30 | X-H torsion
[ 10763 10752 10751 10750 ] final  -82.49 input  -60.55 | X-H torsion
[ 11005 11000 10999 10996 ] final -121.92 input  -57.11 | X-H torsion

> <Gold.Protein.ActiveResidues>
 VAL166  LYS551  ARG553  GLY616  TRP617  ASP618  TYR619  PRO620  LYS621  CYS622 
 ASP623  PHE694  ASN695  SER759  ASP760  ASP761  ALA762  ILE779  LEU786  VAL792 
 PHE793  MET794  SER795  GLU796  ALA797  LYS798  CYS799  TRP800  GLU811  SER814 

> <Gold.Protein.RotatedAtoms>
  150.9277  134.8693  159.7530 H   0  0  0  0  0  0  0  0  0  0  0  0  # atno 6907 bound_to 6896
  152.5023  134.4125  159.9463 H   0  0  0  0  0  0  0  0  0  0  0  0  # atno 6908 bound_to 6896
  151.4154  133.3674  159.2784 H   0  0  0  0  0  0  0  0  0  0  0  0  # atno 6909 bound_to 6896
  145.2420  140.9208  143.3144 H   0  0  0  0  0  0  0  0  0  0  0  0  # atno 7974 bound_to 7965
  154.4067  140.1623  156.2419 H   0  0  0  0  0  0  0  0  0  0  0  0  # atno 8008 bound_to 7997
  155.9193  140.3422  155.6138 H   0  0  0  0  0  0  0  0  0  0  0  0  # atno 8009 bound_to 7997
  155.7241  140.0772  157.2308 H   0  0  0  0  0  0  0  0  0  0  0  0  # atno 8010 bound_to 7997
  140.3270  143.3016  151.9984 H   0  0  0  0  0  0  0  0  0  0  0  0  # atno 10167 bound_to 10162
  156.0004  130.4993  150.5649 H   0  0  0  0  0  0  0  0  0  0  0  0  # atno 10718 bound_to 10713
  154.5763  135.5589  153.7143 H   0  0  0  0  0  0  0  0  0  0  0  0  # atno 10763 bound_to 10752
  153.0066  135.6309  154.2044 H   0  0  0  0  0  0  0  0  0  0  0  0  # atno 10764 bound_to 10752
  154.1984  135.2879  155.2979 H   0  0  0  0  0  0  0  0  0  0  0  0  # atno 10765 bound_to 10752
  141.0034  134.0370  157.3509 H   0  0  0  0  0  0  0  0  0  0  0  0  # atno 11005 bound_to 11000
  144.9580  139.4010  143.6370 LP  0  0  0  0  0  0  0  0  0  0  0  0  # atno 17320 bound_to 7965
  146.3326  139.8619  142.8855 LP  0  0  0  0  0  0  0  0  0  0  0  0  # atno 17321 bound_to 7965
  139.4863  144.6266  151.7152 LP  0  0  0  0  0  0  0  0  0  0  0  0  # atno 17342 bound_to 10162
  140.5432  144.0545  150.6096 LP  0  0  0  0  0  0  0  0  0  0  0  0  # atno 17343 bound_to 10162
  157.3553  131.0740  151.1680 LP  0  0  0  0  0  0  0  0  0  0  0  0  # atno 17370 bound_to 10713
  157.2483  130.6602  149.5920 LP  0  0  0  0  0  0  0  0  0  0  0  0  # atno 17371 bound_to 10713
  139.9050  135.0177  156.7446 LP  0  0  0  0  0  0  0  0  0  0  0  0  # atno 17394 bound_to 11000
  140.6852  133.9438  155.7934 LP  0  0  0  0  0  0  0  0  0  0  0  0  # atno 17395 bound_to 11000

$$$$
