AV-unprocessed.smi:3100|AV-procd|sdf|11806|dock6
  -GOLD-   2272017183D 1   1.00000     0.00000
 Structure written by MMmdl.
 28 29  0  0  0  0  0  0  0  0  1 V2000
  150.5253  144.4731  159.0642 C   0  0  0  0  0  0  0  0  0  0  0  0
  151.5613  143.6338  159.8188 C   0  0  2  0  0  0  0  0  0  0  0  0
  153.0011  143.8812  159.3831 C   0  0  0  0  0  0  0  0  0  0  0  0
  153.6930  142.6277  159.8794 C   0  0  0  0  0  0  0  0  0  0  0  0
  152.5955  141.5512  159.7943 C   0  0  2  0  0  0  0  0  0  0  0  0
  152.8002  140.5411  158.6590 C   0  0  0  0  0  0  0  0  0  0  0  0
  153.7425  139.7492  158.7067 O   0  0  0  0  0  0  0  0  0  0  0  0
  151.9086  140.6070  157.6532 N   0  0  0  0  0  0  0  0  0  0  0  0
  151.8547  139.8157  156.4756 C   0  0  0  0  0  0  0  0  0  0  0  0
  150.8647  140.1826  155.5334 C   0  0  0  0  0  0  0  0  0  0  0  0
  150.6917  139.5270  154.3641 N   0  0  0  0  0  0  0  0  0  0  0  0
  151.5204  138.4878  154.1263 C   0  0  0  0  0  0  0  0  0  0  0  0
  152.5125  138.1084  155.0526 C   0  0  0  0  0  0  0  0  0  0  0  0
  152.6789  138.7673  156.2201 N   0  0  0  0  0  0  0  0  0  0  0  0
  151.3779  142.2525  159.5464 O   0  0  0  0  0  0  0  0  0  0  0  0
  150.6777  145.5373  159.2449 H   0  0  0  0  0  0  0  0  0  0  0  0
  149.5139  144.2216  159.3839 H   0  0  0  0  0  0  0  0  0  0  0  0
  150.5865  144.3029  157.9888 H   0  0  0  0  0  0  0  0  0  0  0  0
  151.4656  143.7930  160.8943 H   0  0  0  0  0  0  0  0  0  0  0  0
  153.0675  143.9369  158.2953 H   0  0  0  0  0  0  0  0  0  0  0  0
  153.4229  144.7961  159.8003 H   0  0  0  0  0  0  0  0  0  0  0  0
  154.5905  142.3977  159.3032 H   0  0  0  0  0  0  0  0  0  0  0  0
  153.9985  142.7578  160.9184 H   0  0  0  0  0  0  0  0  0  0  0  0
  152.5182  141.0319  160.7510 H   0  0  0  0  0  0  0  0  0  0  0  0
  151.1850  141.3053  157.7425 H   0  0  0  0  0  0  0  0  0  0  0  0
  150.1995  141.0138  155.7183 H   0  0  0  0  0  0  0  0  0  0  0  0
  151.3921  137.9570  153.1947 H   0  0  0  0  0  0  0  0  0  0  0  0
  153.1727  137.2764  154.8573 H   0  0  0  0  0  0  0  0  0  0  0  0
  1  2  1  0  0  0  0
  1 16  1  0  0  0  0
  1 17  1  0  0  0  0
  1 18  1  0  0  0  0
  2 15  1  0  0  0  0
  2  3  1  0  0  0  0
  2 19  1  0  0  0  0
  3  4  1  0  0  0  0
  3 20  1  0  0  0  0
  3 21  1  0  0  0  0
  4  5  1  0  0  0  0
  4 22  1  0  0  0  0
  4 23  1  0  0  0  0
  5  6  1  0  0  0  0
  5 15  1  0  0  0  0
  5 24  1  0  0  0  0
  6  7  2  0  0  0  0
  6  8  1  0  0  0  0
  8  9  1  0  0  0  0
  8 25  1  0  0  0  0
  9 14  1  0  0  0  0
  9 10  2  0  0  0  0
 10 11  1  0  0  0  0
 10 26  1  0  0  0  0
 11 12  2  0  0  0  0
 12 13  1  0  0  0  0
 12 27  1  0  0  0  0
 13 14  2  0  0  0  0
 13 28  1  0  0  0  0
M  END
> <s_m_source_file>
AV-unprocessed.smi

> <i_m_source_file_index>
3100

> <i_lp_mmshare_version>
43012

> <i_f3d_flags>
0

> <s_epik_input>
W0NIM11bQ0BASF0xW0NIMl1bQ0gyXVtDQEhdKE8xKUMoPU8pW05IXWMyW2NIXW5bY0hdW2NIXW4y

> <s_epik_cmdline>
J2VwaWtfcHl0aG9uJywgJy1waCcsICc3LjAnLCAnLXRuJywgJzgnLCAnLW1hJywgJzIwMCcsICctbWV0YWxfYmluZGluZycsICctaW1hZScsICc8aW5maWxlLm1hZT4nLCAnLW9tYWUnLCAnPG91dGZpbGUubWFlPic=

> <r_lp_tautomer_probability>
1

> <r_epik_Ionization_Penalty>
2.81186e-06

> <r_epik_Ionization_Penalty_Charging>
0

> <r_epik_Ionization_Penalty_Neutral>
2.81186e-06

> <r_epik_State_Penalty>
-0

> <r_epik_Charging_Adjusted_Penalty>
0

> <i_epik_Tot_Q>
0

> <i_epik_Tot_abs_Q>
0

> <r_epik_Metal_State_Penalty>
-0

> <b_epik_Metal_Only>
0

> <s_lp_Force_Field>
OPLS_2005

> <r_lp_Energy>
25.9651

> <b_lp_Chiralities_Consistent>
1

> <s_lp_Variant>
AV-unprocessed.smi:3100-3

> <Gold.Version>
5.8.1

> <Gold.Id.Protein>
6NUR|6NUR_protein|mol2

> <Gold.PLP.Fitness>
37.2221

> <Gold.PLP.PLP>
-30.5254

> <Gold.PLP.part.hbond>
-3.0644

> <Gold.PLP.part.metal>
0.0000

> <Gold.PLP.part.buried>
-4.3948

> <Gold.PLP.part.nonpolar>
-23.0739

> <Gold.PLP.part.repulsive>
0.2165

> <Gold.PLP.ligand.clash>
0.0000

> <Gold.PLP.ligand.torsion>
0.0980

> <Gold.PLP.Chemscore.Hbond>
1.4750

> <Gold.PLP.Chemscore.CHOScore>
0.8201

> <Gold.PLP.Chemscore.Metal>
0.0000

> <Gold.Chemscore.Hbonds>
donor molecule, donor type, donor heavy atom, donor atom, acceptor molecule, acceptor atom, score
      P1  H  7989  7998       L1    11  0.48
      P1  H  7997  8009       L1     7  1.00
      L1  C    12    27       P1  7949  0.80

> <Gold.PLP.Chemscore.Internal.Correction>
0.0073

> <Gold.Rescore>
     Score         DG    S(hbond)    S(metal)    S(lipo)     H(rot)  DE(clash)    DE(int)     intcor
     13.88     -15.22       0.95        0.00      78.10       1.00       0.03       1.31       ----

> <Gold.Chemscore.Fitness>
13.8830

> <Gold.Chemscore.DG>
-15.2195

> <Gold.Chemscore.ZeroCoef>
-5.4800

> <Gold.Chemscore.Hbond>
0.9468

> <Gold.Chemscore.Metal>
0.0000

> <Gold.Chemscore.Lipo>
78.0971

> <Gold.Chemscore.Internal_Hbond>
0.0000

> <Gold.Chemscore.DEClash>
0.0303

> <Gold.Chemscore.DEInternal>
1.3062

> <Gold.Chemscore.Rot>
1.0000

> <Gold.Chemscore.Internal.Correction>
   9.000000E+99

> <Gold.Chemscore.Hbonds>
donor molecule, donor type, donor heavy atom, donor atom, acceptor molecule, acceptor atom, score
      P1  H  7997  8009       L1     7  0.65

> <Gold.Chemscore.Hbond.Weighted>
-3.1622

> <Gold.Chemscore.Metal.Weighted>
-0.0000

> <Gold.Chemscore.Lipo.Weighted>
-9.1374

> <Gold.Chemscore.Internal_Hbond.Weighted>
0.0000

> <Gold.Chemscore.DEClash.Weighted>
0.0303

> <Gold.Chemscore.DEInternal.Weighted>
1.3062

> <Gold.Chemscore.Rot.Weighted>
2.5600

> <Gold.Chemscore.Internal.Correction.Weighted>
   9.000000E+99

> <Gold.Protein.RotatedTorsions>
[ 6907 6896 6895 6894 ] final  165.53 input  -60.11 | X-H torsion
[ 7974 7965 7964 7962 ] final -120.22 input  175.53 | X-H torsion
[ 8008 7997 7996 7995 ] final  137.82 input   59.86 | X-H torsion
[ 10167 10162 10161 10158 ] final  172.73 input  -65.29 | X-H torsion
[ 10718 10713 10712 10709 ] final  164.87 input   66.30 | X-H torsion
[ 10763 10752 10751 10750 ] final   97.76 input  -60.55 | X-H torsion
[ 11005 11000 10999 10996 ] final   99.37 input  -57.11 | X-H torsion

> <Gold.Protein.ActiveResidues>
 VAL166  LYS551  ARG553  GLY616  TRP617  ASP618  TYR619  PRO620  LYS621  CYS622 
 ASP623  PHE694  ASN695  SER759  ASP760  ASP761  ALA762  ILE779  LEU786  VAL792 
 PHE793  MET794  SER795  GLU796  ALA797  LYS798  CYS799  TRP800  GLU811  SER814 

> <Gold.Protein.RotatedAtoms>
  151.8930  133.3520  159.3804 H   0  0  0  0  0  0  0  0  0  0  0  0  # atno 6907 bound_to 6896
  150.7098  134.4905  159.5522 H   0  0  0  0  0  0  0  0  0  0  0  0  # atno 6908 bound_to 6896
  152.2479  134.8163  160.0501 H   0  0  0  0  0  0  0  0  0  0  0  0  # atno 6909 bound_to 6896
  145.0537  140.8238  143.4194 H   0  0  0  0  0  0  0  0  0  0  0  0  # atno 7974 bound_to 7965
  156.3000  140.2409  156.3972 H   0  0  0  0  0  0  0  0  0  0  0  0  # atno 8008 bound_to 7997
  154.8560  140.0422  157.1654 H   0  0  0  0  0  0  0  0  0  0  0  0  # atno 8009 bound_to 7997
  154.8948  140.2968  155.5354 H   0  0  0  0  0  0  0  0  0  0  0  0  # atno 8010 bound_to 7997
  139.5086  144.3341  152.0083 H   0  0  0  0  0  0  0  0  0  0  0  0  # atno 10167 bound_to 10162
  157.0882  131.0410  151.2548 H   0  0  0  0  0  0  0  0  0  0  0  0  # atno 10718 bound_to 10713
  153.2809  135.4172  155.1077 H   0  0  0  0  0  0  0  0  0  0  0  0  # atno 10763 bound_to 10752
  154.8489  135.3495  154.6114 H   0  0  0  0  0  0  0  0  0  0  0  0  # atno 10764 bound_to 10752
  153.6535  135.7051  153.5259 H   0  0  0  0  0  0  0  0  0  0  0  0  # atno 10765 bound_to 10752
  139.8771  134.9092  156.4595 H   0  0  0  0  0  0  0  0  0  0  0  0  # atno 11005 bound_to 11000
  145.1495  139.2523  143.5448 LP  0  0  0  0  0  0  0  0  0  0  0  0  # atno 17320 bound_to 7965
  146.3520  140.1193  142.8601 LP  0  0  0  0  0  0  0  0  0  0  0  0  # atno 17321 bound_to 7965
  140.2780  144.3891  150.6128 LP  0  0  0  0  0  0  0  0  0  0  0  0  # atno 17342 bound_to 10162
  140.6039  143.2167  151.7018 LP  0  0  0  0  0  0  0  0  0  0  0  0  # atno 17343 bound_to 10162
  157.4744  130.7727  149.7353 LP  0  0  0  0  0  0  0  0  0  0  0  0  # atno 17370 bound_to 10713
  155.9905  130.3944  150.3025 LP  0  0  0  0  0  0  0  0  0  0  0  0  # atno 17371 bound_to 10713
  140.8874  133.7873  155.9533 LP  0  0  0  0  0  0  0  0  0  0  0  0  # atno 17394 bound_to 11000
  140.8790  134.2634  157.5153 LP  0  0  0  0  0  0  0  0  0  0  0  0  # atno 17395 bound_to 11000

$$$$
