AV-unprocessed.smi:2493|AV-procd|sdf|9819|dock4
  -GOLD-   2272013453D 1   1.00000     0.00000
 Structure written by MMmdl.
 41 42  0  0  0  0  0  0  0  0  1 V2000
  149.9494  140.6954  158.3093 C   0  0  0  0  0  0  0  0  0  0  0  0
  150.8936  141.8374  157.8677 C   0  0  0  0  0  0  0  0  0  0  0  0
  151.0418  141.8132  156.3197 C   0  0  0  0  0  0  0  0  0  0  0  0
  149.7721  141.9551  155.6085 N   0  0  0  0  0  0  0  0  0  0  0  0
  149.2941  141.1140  154.6777 C   0  0  0  0  0  0  0  0  0  0  0  0
  149.8908  140.1067  154.2982 O   0  0  0  0  0  0  0  0  0  0  0  0
  147.9348  141.4683  154.0741 C   0  0  0  0  0  0  0  0  0  0  0  0
  147.3450  140.3010  153.3493 C   0  0  0  0  0  0  0  0  0  0  0  0
  146.9007  140.1674  152.0632 C   0  0  0  0  0  0  0  0  0  0  0  0
  146.4550  138.8161  151.9879 C   0  0  0  0  0  0  0  0  0  0  0  0
  146.6090  138.1606  153.1273 N   0  0  0  0  0  0  0  0  0  0  0  0
  147.1545  139.0760  153.9500 N   0  0  0  0  0  0  0  0  0  0  0  0
  150.2260  143.1798  158.2762 C   0  0  0  0  0  0  0  0  0  0  0  0
  151.1506  144.4087  158.3631 C   0  0  0  0  0  0  0  0  0  0  0  0
  151.7777  144.5854  159.7563 C   0  0  0  0  0  0  0  0  0  0  0  0
  152.8733  143.5658  160.0986 C   0  0  0  0  0  0  0  0  0  0  0  0
  152.4394  142.0943  159.9843 C   0  0  0  0  0  0  0  0  0  0  0  0
  152.2878  141.6276  158.5245 C   0  0  0  0  0  0  0  0  0  0  0  0
  147.3847  138.8563  154.9088 H   0  0  0  0  0  0  0  0  0  0  0  0
  148.9752  140.7797  157.8260 H   0  0  0  0  0  0  0  0  0  0  0  0
  149.7806  140.7073  159.3864 H   0  0  0  0  0  0  0  0  0  0  0  0
  150.3504  139.7122  158.0636 H   0  0  0  0  0  0  0  0  0  0  0  0
  151.7492  142.5774  155.9927 H   0  0  0  0  0  0  0  0  0  0  0  0
  151.4747  140.8642  156.0032 H   0  0  0  0  0  0  0  0  0  0  0  0
  149.2070  142.7558  155.8513 H   0  0  0  0  0  0  0  0  0  0  0  0
  147.2633  141.7959  154.8687 H   0  0  0  0  0  0  0  0  0  0  0  0
  148.0471  142.3141  153.3943 H   0  0  0  0  0  0  0  0  0  0  0  0
  146.8925  140.9222  151.2909 H   0  0  0  0  0  0  0  0  0  0  0  0
  146.0267  138.2962  151.1435 H   0  0  0  0  0  0  0  0  0  0  0  0
  149.4245  143.3996  157.5693 H   0  0  0  0  0  0  0  0  0  0  0  0
  149.7145  143.0685  159.2334 H   0  0  0  0  0  0  0  0  0  0  0  0
  151.9169  144.3910  157.5879 H   0  0  0  0  0  0  0  0  0  0  0  0
  150.5483  145.2952  158.1611 H   0  0  0  0  0  0  0  0  0  0  0  0
  152.2100  145.5843  159.8207 H   0  0  0  0  0  0  0  0  0  0  0  0
  150.9973  144.5540  160.5176 H   0  0  0  0  0  0  0  0  0  0  0  0
  153.7466  143.7419  159.4697 H   0  0  0  0  0  0  0  0  0  0  0  0
  153.2054  143.7535  161.1201 H   0  0  0  0  0  0  0  0  0  0  0  0
  153.2177  141.4882  160.4493 H   0  0  0  0  0  0  0  0  0  0  0  0
  151.5345  141.9042  160.5616 H   0  0  0  0  0  0  0  0  0  0  0  0
  152.5402  140.5672  158.4785 H   0  0  0  0  0  0  0  0  0  0  0  0
  153.0574  142.1162  157.9253 H   0  0  0  0  0  0  0  0  0  0  0  0
  1  2  1  0  0  0  0
  1 20  1  0  0  0  0
  1 21  1  0  0  0  0
  1 22  1  0  0  0  0
  2 18  1  0  0  0  0
  2  3  1  0  0  0  0
  2 13  1  0  0  0  0
  3  4  1  0  0  0  0
  3 23  1  0  0  0  0
  3 24  1  0  0  0  0
  4  5  1  0  0  0  0
  4 25  1  0  0  0  0
  5  6  2  0  0  0  0
  5  7  1  0  0  0  0
  7  8  1  0  0  0  0
  7 26  1  0  0  0  0
  7 27  1  0  0  0  0
  8 12  1  0  0  0  0
  8  9  2  0  0  0  0
  9 10  1  0  0  0  0
  9 28  1  0  0  0  0
 10 11  2  0  0  0  0
 10 29  1  0  0  0  0
 11 12  1  0  0  0  0
 12 19  1  0  0  0  0
 13 14  1  0  0  0  0
 13 30  1  0  0  0  0
 13 31  1  0  0  0  0
 14 15  1  0  0  0  0
 14 32  1  0  0  0  0
 14 33  1  0  0  0  0
 15 16  1  0  0  0  0
 15 34  1  0  0  0  0
 15 35  1  0  0  0  0
 16 17  1  0  0  0  0
 16 36  1  0  0  0  0
 16 37  1  0  0  0  0
 17 18  1  0  0  0  0
 17 38  1  0  0  0  0
 17 39  1  0  0  0  0
 18 40  1  0  0  0  0
 18 41  1  0  0  0  0
M  END
> <s_m_source_file>
AV-unprocessed.smi

> <i_m_source_file_index>
2493

> <i_lp_mmshare_version>
43012

> <i_f3d_flags>
0

> <s_epik_input>
W0NIMl0xW0NIMl1bQ0gyXVtDSDJdW0NIMl1bQ0gyXUMxKFtDSDNdKVtDSDJdW05IXUMoPU8pW0NIMl1jMltjSF1bY0hdbltuSF0y

> <s_epik_cmdline>
J2VwaWtfcHl0aG9uJywgJy1waCcsICc3LjAnLCAnLXRuJywgJzgnLCAnLW1hJywgJzIwMCcsICctbWV0YWxfYmluZGluZycsICctaW1hZScsICc8aW5maWxlLm1hZT4nLCAnLW9tYWUnLCAnPG91dGZpbGUubWFlPic=

> <r_lp_tautomer_probability>
0.5

> <r_epik_Ionization_Penalty>
2.55018e-05

> <r_epik_Ionization_Penalty_Charging>
0

> <r_epik_Ionization_Penalty_Neutral>
2.55018e-05

> <r_epik_State_Penalty>
0.41068

> <r_epik_Charging_Adjusted_Penalty>
0.41068

> <i_epik_Tot_Q>
0

> <i_epik_Tot_abs_Q>
0

> <r_epik_Metal_State_Penalty>
0.410675

> <b_epik_Metal_Only>
0

> <s_lp_Force_Field>
OPLS_2005

> <r_lp_Energy>
19.8643

> <b_lp_Chiralities_Consistent>
1

> <s_lp_Variant>
AV-unprocessed.smi:2493-1

> <Gold.Version>
5.8.1

> <Gold.Id.Protein>
6NUR|6NUR_protein|mol2

> <Gold.PLP.Fitness>
47.0158

> <Gold.PLP.PLP>
-38.8404

> <Gold.PLP.part.hbond>
-2.0000

> <Gold.PLP.part.metal>
0.0000

> <Gold.PLP.part.buried>
-1.7884

> <Gold.PLP.part.nonpolar>
-36.8770

> <Gold.PLP.part.repulsive>
0.5708

> <Gold.PLP.ligand.clash>
0.0000

> <Gold.PLP.ligand.torsion>
0.2413

> <Gold.PLP.Chemscore.Hbond>
1.9200

> <Gold.PLP.Chemscore.CHOScore>
0.9636

> <Gold.PLP.Chemscore.Metal>
0.0000

> <Gold.Chemscore.Hbonds>
donor molecule, donor type, donor heavy atom, donor atom, acceptor molecule, acceptor atom, score
      L1  H     4    25       P1  8028  0.96
      P1  H  7989  7998       L1     6  0.89
      L1  C    10    29       P1 10171  0.98

> <Gold.PLP.Chemscore.Internal.Correction>
0.0074

> <Gold.Rescore>
     Score         DG    S(hbond)    S(metal)    S(lipo)     H(rot)  DE(clash)    DE(int)     intcor
     17.98     -19.28       1.39        0.00     114.64       1.66       1.01       0.29       ----

> <Gold.Chemscore.Fitness>
17.9809

> <Gold.Chemscore.DG>
-19.2786

> <Gold.Chemscore.ZeroCoef>
-5.4800

> <Gold.Chemscore.Hbond>
1.3873

> <Gold.Chemscore.Metal>
0.0000

> <Gold.Chemscore.Lipo>
114.6355

> <Gold.Chemscore.Internal_Hbond>
0.0000

> <Gold.Chemscore.DEClash>
1.0089

> <Gold.Chemscore.DEInternal>
0.2888

> <Gold.Chemscore.Rot>
1.6592

> <Gold.Chemscore.Internal.Correction>
   9.000000E+99

> <Gold.Chemscore.Hbonds>
donor molecule, donor type, donor heavy atom, donor atom, acceptor molecule, acceptor atom, score
      L1  H     4    25       P1  8028  0.89
      P1  H  7989  7998       L1     6  0.32

> <Gold.Chemscore.Hbond.Weighted>
-4.6337

> <Gold.Chemscore.Metal.Weighted>
-0.0000

> <Gold.Chemscore.Lipo.Weighted>
-13.4124

> <Gold.Chemscore.Internal_Hbond.Weighted>
0.0000

> <Gold.Chemscore.DEClash.Weighted>
1.0089

> <Gold.Chemscore.DEInternal.Weighted>
0.2888

> <Gold.Chemscore.Rot.Weighted>
4.2475

> <Gold.Chemscore.Internal.Correction.Weighted>
   9.000000E+99

> <Gold.Protein.RotatedTorsions>
[ 6907 6896 6895 6894 ] final -173.68 input  -60.11 | X-H torsion
[ 7974 7965 7964 7962 ] final   86.78 input  175.53 | X-H torsion
[ 8008 7997 7996 7995 ] final  -17.45 input   59.86 | X-H torsion
[ 10167 10162 10161 10158 ] final  107.60 input  -65.29 | X-H torsion
[ 10718 10713 10712 10709 ] final  103.49 input   66.30 | X-H torsion
[ 10763 10752 10751 10750 ] final -126.49 input  -60.55 | X-H torsion
[ 11005 11000 10999 10996 ] final   17.26 input  -57.11 | X-H torsion

> <Gold.Protein.ActiveResidues>
 VAL166  LYS551  ARG553  GLY616  TRP617  ASP618  TYR619  PRO620  LYS621  CYS622 
 ASP623  PHE694  ASN695  SER759  ASP760  ASP761  ALA762  ILE779  LEU786  VAL792 
 PHE793  MET794  SER795  GLU796  ALA797  LYS798  CYS799  TRP800  GLU811  SER814 

> <Gold.Protein.RotatedAtoms>
  151.5601  133.3404  159.2969 H   0  0  0  0  0  0  0  0  0  0  0  0  # atno 6907 bound_to 6896
  150.8428  134.7729  159.6957 H   0  0  0  0  0  0  0  0  0  0  0  0  # atno 6908 bound_to 6896
  152.4492  134.5437  159.9898 H   0  0  0  0  0  0  0  0  0  0  0  0  # atno 6909 bound_to 6896
  145.5677  139.2310  143.2424 H   0  0  0  0  0  0  0  0  0  0  0  0  # atno 7974 bound_to 7965
  154.4977  140.2142  155.9411 H   0  0  0  0  0  0  0  0  0  0  0  0  # atno 8008 bound_to 7997
  156.1393  140.3182  155.8437 H   0  0  0  0  0  0  0  0  0  0  0  0  # atno 8009 bound_to 7997
  155.4151  140.0493  157.3020 H   0  0  0  0  0  0  0  0  0  0  0  0  # atno 8010 bound_to 7997
  139.6914  144.7107  151.1342 H   0  0  0  0  0  0  0  0  0  0  0  0  # atno 10167 bound_to 10162
  157.6770  131.0780  150.5564 H   0  0  0  0  0  0  0  0  0  0  0  0  # atno 10718 bound_to 10713
  154.8746  135.3994  154.3438 H   0  0  0  0  0  0  0  0  0  0  0  0  # atno 10763 bound_to 10752
  153.4234  135.7023  153.6284 H   0  0  0  0  0  0  0  0  0  0  0  0  # atno 10764 bound_to 10752
  153.4937  135.3743  155.2474 H   0  0  0  0  0  0  0  0  0  0  0  0  # atno 10765 bound_to 10752
  140.4379  134.1352  155.7687 H   0  0  0  0  0  0  0  0  0  0  0  0  # atno 11005 bound_to 11000
  146.1806  140.6503  142.9191 LP  0  0  0  0  0  0  0  0  0  0  0  0  # atno 17320 bound_to 7965
  144.7453  140.5050  143.6840 LP  0  0  0  0  0  0  0  0  0  0  0  0  # atno 17321 bound_to 7965
  140.7683  143.5554  150.9158 LP  0  0  0  0  0  0  0  0  0  0  0  0  # atno 17342 bound_to 10162
  139.9232  143.6581  152.3092 LP  0  0  0  0  0  0  0  0  0  0  0  0  # atno 17343 bound_to 10162
  156.5867  130.4318  149.5954 LP  0  0  0  0  0  0  0  0  0  0  0  0  # atno 17370 bound_to 10713
  156.2616  130.6966  151.1736 LP  0  0  0  0  0  0  0  0  0  0  0  0  # atno 17371 bound_to 10713
  141.1718  133.8593  157.1547 LP  0  0  0  0  0  0  0  0  0  0  0  0  # atno 17394 bound_to 11000
  140.0090  134.9996  157.0354 LP  0  0  0  0  0  0  0  0  0  0  0  0  # atno 17395 bound_to 11000

$$$$
