AV-unprocessed.smi:1952|AV-procd|sdf|7883|dock10
  -GOLD-   2272010 33D 1   1.00000     0.00000
 Structure written by MMmdl.
 39 40  0  0  0  0  0  0  0  0  1 V2000
  144.7253  133.6329  149.9112 C   0  0  0  0  0  0  0  0  0  0  0  0
  144.5578  134.8185  150.7983 C   0  0  0  0  0  0  0  0  0  0  0  0
  145.3159  135.9352  151.0123 C   0  0  0  0  0  0  0  0  0  0  0  0
  144.5664  136.6495  151.9844 C   0  0  0  0  0  0  0  0  0  0  0  0
  145.0225  137.8967  152.4822 N   0  0  0  0  0  0  0  0  0  0  0  0
  146.1260  138.1335  153.2114 C   0  0  0  0  0  0  0  0  0  0  0  0
  146.9366  137.2773  153.5664 O   0  0  0  0  0  0  0  0  0  0  0  0
  146.2410  139.4373  153.5064 N   0  0  0  0  0  0  0  0  0  0  0  0
  147.3330  140.0516  154.2601 C   0  0  2  0  0  0  0  0  0  0  0  0
  147.2576  141.5753  154.0946 C   0  0  0  0  0  0  0  0  0  0  0  0
  148.6930  139.5058  153.7730 C   0  0  0  0  0  0  0  0  0  0  0  0
  149.7626  139.4818  154.7716 N   0  0  0  0  0  0  0  0  0  0  0  0
  150.9514  138.8135  154.2542 C   0  0  0  0  0  0  0  0  0  0  0  0
  152.0830  138.7676  155.2956 C   0  0  0  0  0  0  0  0  0  0  0  0
  152.3925  140.0900  155.7229 O   0  0  0  0  0  0  0  0  0  0  0  0
  151.2671  140.7664  156.2737 C   0  0  0  0  0  0  0  0  0  0  0  0
  150.1353  140.8176  155.2331 C   0  0  0  0  0  0  0  0  0  0  0  0
  143.4522  136.0248  152.3334 N   0  0  0  0  0  0  0  0  0  0  0  0
  143.4408  134.8483  151.5748 O   0  0  0  0  0  0  0  0  0  0  0  0
  145.6818  133.6685  149.3896 H   0  0  0  0  0  0  0  0  0  0  0  0
  143.9332  133.5951  149.1632 H   0  0  0  0  0  0  0  0  0  0  0  0
  144.6899  132.7093  150.4891 H   0  0  0  0  0  0  0  0  0  0  0  0
  146.2545  136.1962  150.5462 H   0  0  0  0  0  0  0  0  0  0  0  0
  144.4471  138.6947  152.2580 H   0  0  0  0  0  0  0  0  0  0  0  0
  145.5240  140.0615  153.1672 H   0  0  0  0  0  0  0  0  0  0  0  0
  147.2179  139.8487  155.3252 H   0  0  0  0  0  0  0  0  0  0  0  0
  148.0466  142.0696  154.6620 H   0  0  0  0  0  0  0  0  0  0  0  0
  146.3034  141.9628  154.4533 H   0  0  0  0  0  0  0  0  0  0  0  0
  147.3654  141.8688  153.0498 H   0  0  0  0  0  0  0  0  0  0  0  0
  148.5302  138.4904  153.4081 H   0  0  0  0  0  0  0  0  0  0  0  0
  149.0228  140.0805  152.9063 H   0  0  0  0  0  0  0  0  0  0  0  0
  150.7020  137.7964  153.9505 H   0  0  0  0  0  0  0  0  0  0  0  0
  151.3056  139.3282  153.3597 H   0  0  0  0  0  0  0  0  0  0  0  0
  151.7939  138.1590  156.1537 H   0  0  0  0  0  0  0  0  0  0  0  0
  152.9757  138.3135  154.8656 H   0  0  0  0  0  0  0  0  0  0  0  0
  150.9343  140.2569  157.1794 H   0  0  0  0  0  0  0  0  0  0  0  0
  151.5630  141.7748  156.5633 H   0  0  0  0  0  0  0  0  0  0  0  0
  150.4508  141.4279  154.3855 H   0  0  0  0  0  0  0  0  0  0  0  0
  149.2788  141.3219  155.6780 H   0  0  0  0  0  0  0  0  0  0  0  0
  1  2  1  0  0  0  0
  1 20  1  0  0  0  0
  1 21  1  0  0  0  0
  1 22  1  0  0  0  0
  2 19  1  0  0  0  0
  2  3  2  0  0  0  0
  3  4  1  0  0  0  0
  3 23  1  0  0  0  0
  4  5  1  0  0  0  0
  4 18  2  0  0  0  0
  5  6  1  0  0  0  0
  5 24  1  0  0  0  0
  6  7  2  0  0  0  0
  6  8  1  0  0  0  0
  8  9  1  0  0  0  0
  8 25  1  0  0  0  0
  9 10  1  0  0  0  0
  9 11  1  0  0  0  0
  9 26  1  0  0  0  0
 10 27  1  0  0  0  0
 10 28  1  0  0  0  0
 10 29  1  0  0  0  0
 11 12  1  0  0  0  0
 11 30  1  0  0  0  0
 11 31  1  0  0  0  0
 12 17  1  0  0  0  0
 12 13  1  0  0  0  0
 13 14  1  0  0  0  0
 13 32  1  0  0  0  0
 13 33  1  0  0  0  0
 14 15  1  0  0  0  0
 14 34  1  0  0  0  0
 14 35  1  0  0  0  0
 15 16  1  0  0  0  0
 16 17  1  0  0  0  0
 16 36  1  0  0  0  0
 16 37  1  0  0  0  0
 17 38  1  0  0  0  0
 17 39  1  0  0  0  0
 18 19  1  0  0  0  0
M  END
> <s_m_source_file>
AV-unprocessed.smi

> <i_m_source_file_index>
1952

> <i_lp_mmshare_version>
43012

> <i_f3d_flags>
0

> <s_epik_input>
W0NIM11jMVtjSF1jKG5vMSlbTkhdQyg9TylbTkhdW0NASF0oW0NIM10pW0NIMl1OMltDSDJdW0NIMl1PW0NIMl1bQ0gyXTI=

> <s_epik_cmdline>
J2VwaWtfcHl0aG9uJywgJy1waCcsICc3LjAnLCAnLXRuJywgJzgnLCAnLW1hJywgJzIwMCcsICctbWV0YWxfYmluZGluZycsICctaW1hZScsICc8aW5maWxlLm1hZT4nLCAnLW9tYWUnLCAnPG91dGZpbGUubWFlPic=

> <r_epik_Ionization_Penalty>
0.214075

> <r_epik_Ionization_Penalty_Charging>
0

> <r_epik_Ionization_Penalty_Neutral>
0.214075

> <r_epik_State_Penalty>
0.204211

> <r_epik_Charging_Adjusted_Penalty>
0.204211

> <i_epik_Tot_Q>
0

> <i_epik_Tot_abs_Q>
0

> <r_epik_Metal_State_Penalty>
0.218782

> <b_epik_Metal_Only>
0

> <s_lp_Force_Field>
OPLS_2005

> <r_lp_Energy>
23.1599

> <b_lp_Chiralities_Consistent>
1

> <s_lp_Variant>
AV-unprocessed.smi:1952-1

> <Gold.Version>
5.8.1

> <Gold.Id.Protein>
6NUR|6NUR_protein|mol2

> <Gold.PLP.Fitness>
37.5817

> <Gold.PLP.PLP>
-30.8564

> <Gold.PLP.part.hbond>
-3.7899

> <Gold.PLP.part.metal>
0.0000

> <Gold.PLP.part.buried>
-2.5717

> <Gold.PLP.part.nonpolar>
-25.2488

> <Gold.PLP.part.repulsive>
1.0298

> <Gold.PLP.ligand.clash>
0.0000

> <Gold.PLP.ligand.torsion>
1.1426

> <Gold.PLP.Chemscore.Hbond>
3.0000

> <Gold.PLP.Chemscore.CHOScore>
0.0000

> <Gold.PLP.Chemscore.Metal>
0.0000

> <Gold.Chemscore.Hbonds>
donor molecule, donor type, donor heavy atom, donor atom, acceptor molecule, acceptor atom, score
      L1  H     5    24       P1 10175  1.00
      L1  H     8    25       P1 10175  1.00
      P1  H  7997  8010       L1    15  0.99

> <Gold.PLP.Chemscore.Internal.Correction>
0.0105

> <Gold.Rescore>
     Score         DG    S(hbond)    S(metal)    S(lipo)     H(rot)  DE(clash)    DE(int)     intcor
     15.48     -18.11       2.72        0.00      64.48       1.56       0.29       2.34       ----

> <Gold.Chemscore.Fitness>
15.4777

> <Gold.Chemscore.DG>
-18.1146

> <Gold.Chemscore.ZeroCoef>
-5.4800

> <Gold.Chemscore.Hbond>
2.7197

> <Gold.Chemscore.Metal>
0.0000

> <Gold.Chemscore.Lipo>
64.4761

> <Gold.Chemscore.Internal_Hbond>
0.0000

> <Gold.Chemscore.DEClash>
0.2920

> <Gold.Chemscore.DEInternal>
2.3449

> <Gold.Chemscore.Rot>
1.5597

> <Gold.Chemscore.Internal.Correction>
   9.000000E+99

> <Gold.Chemscore.Hbonds>
donor molecule, donor type, donor heavy atom, donor atom, acceptor molecule, acceptor atom, score
      L1  H     5    24       P1 10175  0.99
      L1  H     8    25       P1 10175  0.93
      P1  H  7997  8010       L1    15  0.59

> <Gold.Chemscore.Hbond.Weighted>
-9.0837

> <Gold.Chemscore.Metal.Weighted>
-0.0000

> <Gold.Chemscore.Lipo.Weighted>
-7.5437

> <Gold.Chemscore.Internal_Hbond.Weighted>
0.0000

> <Gold.Chemscore.DEClash.Weighted>
0.2920

> <Gold.Chemscore.DEInternal.Weighted>
2.3449

> <Gold.Chemscore.Rot.Weighted>
3.9928

> <Gold.Chemscore.Internal.Correction.Weighted>
   9.000000E+99

> <Gold.Protein.RotatedTorsions>
[ 6907 6896 6895 6894 ] final  166.21 input  -60.11 | X-H torsion
[ 7974 7965 7964 7962 ] final   16.15 input  175.53 | X-H torsion
[ 8008 7997 7996 7995 ] final   98.99 input   59.86 | X-H torsion
[ 10167 10162 10161 10158 ] final   -8.04 input  -65.29 | X-H torsion
[ 10718 10713 10712 10709 ] final  129.15 input   66.30 | X-H torsion
[ 10763 10752 10751 10750 ] final   20.21 input  -60.55 | X-H torsion
[ 11005 11000 10999 10996 ] final   17.64 input  -57.11 | X-H torsion

> <Gold.Protein.ActiveResidues>
 VAL166  LYS551  ARG553  GLY616  TRP617  ASP618  TYR619  PRO620  LYS621  CYS622 
 ASP623  PHE694  ASN695  SER759  ASP760  ASP761  ALA762  ILE779  LEU786  VAL792 
 PHE793  MET794  SER795  GLU796  ALA797  LYS798  CYS799  TRP800  GLU811  SER814 

> <Gold.Protein.RotatedAtoms>
  151.8824  133.3498  159.3770 H   0  0  0  0  0  0  0  0  0  0  0  0  # atno 6907 bound_to 6896
  150.7124  134.5005  159.5568 H   0  0  0  0  0  0  0  0  0  0  0  0  # atno 6908 bound_to 6896
  152.2559  134.8085  160.0489 H   0  0  0  0  0  0  0  0  0  0  0  0  # atno 6909 bound_to 6896
  146.2258  139.8789  142.8574 H   0  0  0  0  0  0  0  0  0  0  0  0  # atno 7974 bound_to 7965
  156.1060  140.3235  155.8007 H   0  0  0  0  0  0  0  0  0  0  0  0  # atno 8008 bound_to 7997
  155.4755  140.0550  157.2991 H   0  0  0  0  0  0  0  0  0  0  0  0  # atno 8009 bound_to 7997
  154.4728  140.2019  155.9967 H   0  0  0  0  0  0  0  0  0  0  0  0  # atno 8010 bound_to 7997
  140.7047  143.6013  150.8794 H   0  0  0  0  0  0  0  0  0  0  0  0  # atno 10167 bound_to 10162
  157.5181  131.1098  150.9195 H   0  0  0  0  0  0  0  0  0  0  0  0  # atno 10718 bound_to 10713
  153.1096  135.6693  153.9523 H   0  0  0  0  0  0  0  0  0  0  0  0  # atno 10763 bound_to 10752
  153.9070  135.3029  155.3450 H   0  0  0  0  0  0  0  0  0  0  0  0  # atno 10764 bound_to 10752
  154.7517  135.5031  153.9377 H   0  0  0  0  0  0  0  0  0  0  0  0  # atno 10765 bound_to 10752
  140.4337  134.1393  155.7683 H   0  0  0  0  0  0  0  0  0  0  0  0  # atno 11005 bound_to 11000
  145.2532  141.0051  143.3869 LP  0  0  0  0  0  0  0  0  0  0  0  0  # atno 17320 bound_to 7965
  144.9357  139.4246  143.6473 LP  0  0  0  0  0  0  0  0  0  0  0  0  # atno 17321 bound_to 7965
  139.9738  143.6027  152.2965 LP  0  0  0  0  0  0  0  0  0  0  0  0  # atno 17342 bound_to 10162
  139.6623  144.7662  151.1938 LP  0  0  0  0  0  0  0  0  0  0  0  0  # atno 17343 bound_to 10162
  156.9814  130.5528  149.5296 LP  0  0  0  0  0  0  0  0  0  0  0  0  # atno 17370 bound_to 10713
  156.0334  130.5423  150.8592 LP  0  0  0  0  0  0  0  0  0  0  0  0  # atno 17371 bound_to 10713
  141.1735  133.8562  157.1497 LP  0  0  0  0  0  0  0  0  0  0  0  0  # atno 17394 bound_to 11000
  140.0117  134.9985  157.0408 LP  0  0  0  0  0  0  0  0  0  0  0  0  # atno 17395 bound_to 11000

$$$$
