AV-unprocessed.smi:2152|AV-procd|sdf|8765|dock2
  -GOLD-   2272011543D 1   1.00000     0.00000
 Structure written by MMmdl.
 41 42  0  0  0  0  0  0  0  0  1 V2000
  154.0327  140.1361  159.8747 C   0  0  0  0  0  0  0  0  0  0  0  0
  153.0509  141.2112  160.3756 C   0  0  1  0  0  0  0  0  0  0  0  0
  153.6801  142.0219  161.5269 C   0  0  0  0  0  0  0  0  0  0  0  0
  152.7213  143.0959  162.0632 C   0  0  0  0  0  0  0  0  0  0  0  0
  152.2591  144.0332  160.9395 C   0  0  0  0  0  0  0  0  0  0  0  0
  151.6160  143.2403  159.7927 C   0  0  0  0  0  0  0  0  0  0  0  0
  152.5667  142.1570  159.2460 C   0  0  2  0  0  0  0  0  0  0  0  0
  151.8738  141.4064  158.2002 N   0  0  0  0  0  0  0  0  0  0  0  0
  151.2471  141.9318  157.1361 C   0  0  0  0  0  0  0  0  0  0  0  0
  151.1574  143.1425  156.9285 O   0  0  0  0  0  0  0  0  0  0  0  0
  150.6162  140.9264  156.1641 C   0  0  0  0  0  0  0  0  0  0  0  0
  149.2779  141.3323  155.7167 N   0  0  0  0  0  0  0  0  0  0  0  0
  148.9703  141.3142  154.3686 C   0  0  0  0  0  0  0  0  0  0  0  0
  147.7589  141.6532  153.8763 C   0  0  0  0  0  0  0  0  0  0  0  0
  146.6810  142.0719  154.7639 C   0  0  0  0  0  0  0  0  0  0  0  0
  145.5551  142.3675  154.3618 O   0  0  0  0  0  0  0  0  0  0  0  0
  147.0269  142.0991  156.1359 N   0  0  0  0  0  0  0  0  0  0  0  0
  146.0044  142.4848  157.0865 C   0  0  0  0  0  0  0  0  0  0  0  0
  148.2903  141.7242  156.6466 C   0  0  0  0  0  0  0  0  0  0  0  0
  148.5346  141.7261  157.8557 O   0  0  0  0  0  0  0  0  0  0  0  0
  154.9099  140.5878  159.4105 H   0  0  0  0  0  0  0  0  0  0  0  0
  153.5699  139.4770  159.1403 H   0  0  0  0  0  0  0  0  0  0  0  0
  154.3780  139.5076  160.6958 H   0  0  0  0  0  0  0  0  0  0  0  0
  152.1794  140.6924  160.7784 H   0  0  0  0  0  0  0  0  0  0  0  0
  153.9663  141.3542  162.3403 H   0  0  0  0  0  0  0  0  0  0  0  0
  154.5994  142.4973  161.1819 H   0  0  0  0  0  0  0  0  0  0  0  0
  151.8553  142.6179  162.5228 H   0  0  0  0  0  0  0  0  0  0  0  0
  153.2107  143.6716  162.8494 H   0  0  0  0  0  0  0  0  0  0  0  0
  151.5500  144.7628  161.3311 H   0  0  0  0  0  0  0  0  0  0  0  0
  153.1105  144.6002  160.5606 H   0  0  0  0  0  0  0  0  0  0  0  0
  150.6935  142.7783  160.1481 H   0  0  0  0  0  0  0  0  0  0  0  0
  151.3298  143.9239  158.9924 H   0  0  0  0  0  0  0  0  0  0  0  0
  153.4387  142.6644  158.8287 H   0  0  0  0  0  0  0  0  0  0  0  0
  151.8898  140.4002  158.2838 H   0  0  0  0  0  0  0  0  0  0  0  0
  151.2679  140.7812  155.3003 H   0  0  0  0  0  0  0  0  0  0  0  0
  150.5668  139.9574  156.6627 H   0  0  0  0  0  0  0  0  0  0  0  0
  149.7346  141.0062  153.6698 H   0  0  0  0  0  0  0  0  0  0  0  0
  147.5837  141.6102  152.8113 H   0  0  0  0  0  0  0  0  0  0  0  0
  146.4695  142.9958  157.9309 H   0  0  0  0  0  0  0  0  0  0  0  0
  145.5032  141.5683  157.4006 H   0  0  0  0  0  0  0  0  0  0  0  0
  145.3075  143.1803  156.6172 H   0  0  0  0  0  0  0  0  0  0  0  0
  1  2  1  0  0  0  0
  1 21  1  0  0  0  0
  1 22  1  0  0  0  0
  1 23  1  0  0  0  0
  2  7  1  0  0  0  0
  2  3  1  0  0  0  0
  2 24  1  0  0  0  0
  3  4  1  0  0  0  0
  3 25  1  0  0  0  0
  3 26  1  0  0  0  0
  4  5  1  0  0  0  0
  4 27  1  0  0  0  0
  4 28  1  0  0  0  0
  5  6  1  0  0  0  0
  5 29  1  0  0  0  0
  5 30  1  0  0  0  0
  6  7  1  0  0  0  0
  6 31  1  0  0  0  0
  6 32  1  0  0  0  0
  7  8  1  0  0  0  0
  7 33  1  0  0  0  0
  8  9  1  0  0  0  0
  8 34  1  0  0  0  0
  9 10  2  0  0  0  0
  9 11  1  0  0  0  0
 11 12  1  0  0  0  0
 11 35  1  0  0  0  0
 11 36  1  0  0  0  0
 12 19  1  0  0  0  0
 12 13  1  0  0  0  0
 13 14  2  0  0  0  0
 13 37  1  0  0  0  0
 14 15  1  0  0  0  0
 14 38  1  0  0  0  0
 15 16  2  0  0  0  0
 15 17  1  0  0  0  0
 17 18  1  0  0  0  0
 17 19  1  0  0  0  0
 18 39  1  0  0  0  0
 18 40  1  0  0  0  0
 18 41  1  0  0  0  0
 19 20  2  0  0  0  0
M  END
> <s_m_source_file>
AV-unprocessed.smi

> <i_m_source_file_index>
2152

> <i_lp_mmshare_version>
43012

> <i_f3d_flags>
0

> <s_epik_input>
W0NIM11bQ0BASF0xW0NIMl1bQ0gyXVtDSDJdW0NIMl1bQ0BIXTFbTkhdQyg9TylbQ0gyXW4yW2NIXVtjSF1jKD1PKW4oW0NIM10pYzI9Tw==

> <s_epik_cmdline>
J2VwaWtfcHl0aG9uJywgJy1waCcsICc3LjAnLCAnLXRuJywgJzgnLCAnLW1hJywgJzIwMCcsICctbWV0YWxfYmluZGluZycsICctaW1hZScsICc8aW5maWxlLm1hZT4nLCAnLW9tYWUnLCAnPG91dGZpbGUubWFlPic=

> <r_lp_tautomer_probability>
1

> <r_epik_Ionization_Penalty>
3.20555e-08

> <r_epik_Ionization_Penalty_Charging>
1.30086e-08

> <r_epik_Ionization_Penalty_Neutral>
1.90469e-08

> <r_epik_State_Penalty>
-0

> <r_epik_Charging_Adjusted_Penalty>
1.30086e-08

> <i_epik_Tot_Q>
0

> <i_epik_Tot_abs_Q>
0

> <r_epik_Metal_State_Penalty>
-0

> <b_epik_Metal_Only>
0

> <s_lp_Force_Field>
OPLS_2005

> <r_lp_Energy>
17.8687

> <b_lp_Chiralities_Consistent>
1

> <s_lp_Variant>
AV-unprocessed.smi:2152-4

> <Gold.Version>
5.8.1

> <Gold.Id.Protein>
6NUR|6NUR_protein|mol2

> <Gold.PLP.Fitness>
42.6774

> <Gold.PLP.PLP>
-41.4128

> <Gold.PLP.part.hbond>
0.0000

> <Gold.PLP.part.metal>
0.0000

> <Gold.PLP.part.buried>
-4.5087

> <Gold.PLP.part.nonpolar>
-36.8058

> <Gold.PLP.part.repulsive>
1.1319

> <Gold.PLP.ligand.clash>
0.0000

> <Gold.PLP.ligand.torsion>
0.3757

> <Gold.PLP.Chemscore.Hbond>
0.0000

> <Gold.PLP.Chemscore.CHOScore>
0.6699

> <Gold.PLP.Chemscore.Metal>
0.0000

> <Gold.Chemscore.Hbonds>
donor molecule, donor type, donor heavy atom, donor atom, acceptor molecule, acceptor atom, score
      L1  C    13    37       P1  7957  0.61

> <Gold.PLP.Chemscore.Internal.Correction>
0.0064

> <Gold.Rescore>
     Score         DG    S(hbond)    S(metal)    S(lipo)     H(rot)  DE(clash)    DE(int)     intcor
     10.05     -12.84       0.00        0.00      96.24       1.52       0.05       2.75       ----

> <Gold.Chemscore.Fitness>
10.0457

> <Gold.Chemscore.DG>
-12.8380

> <Gold.Chemscore.ZeroCoef>
-5.4800

> <Gold.Chemscore.Hbond>
0.0000

> <Gold.Chemscore.Metal>
0.0000

> <Gold.Chemscore.Lipo>
96.2383

> <Gold.Chemscore.Internal_Hbond>
0.0000

> <Gold.Chemscore.DEClash>
0.0453

> <Gold.Chemscore.DEInternal>
2.7470

> <Gold.Chemscore.Rot>
1.5242

> <Gold.Chemscore.Internal.Correction>
   9.000000E+99

> <Gold.Chemscore.Hbond.Weighted>
-0.0000

> <Gold.Chemscore.Metal.Weighted>
-0.0000

> <Gold.Chemscore.Lipo.Weighted>
-11.2599

> <Gold.Chemscore.Internal_Hbond.Weighted>
0.0000

> <Gold.Chemscore.DEClash.Weighted>
0.0453

> <Gold.Chemscore.DEInternal.Weighted>
2.7470

> <Gold.Chemscore.Rot.Weighted>
3.9019

> <Gold.Chemscore.Internal.Correction.Weighted>
   9.000000E+99

> <Gold.Protein.RotatedTorsions>
[ 6907 6896 6895 6894 ] final   63.27 input  -60.11 | X-H torsion
[ 7974 7965 7964 7962 ] final   57.43 input  175.53 | X-H torsion
[ 8008 7997 7996 7995 ] final  -91.57 input   59.86 | X-H torsion
[ 10167 10162 10161 10158 ] final -100.83 input  -65.29 | X-H torsion
[ 10718 10713 10712 10709 ] final   75.74 input   66.30 | X-H torsion
[ 10763 10752 10751 10750 ] final  133.85 input  -60.55 | X-H torsion
[ 11005 11000 10999 10996 ] final  -28.93 input  -57.11 | X-H torsion

> <Gold.Protein.ActiveResidues>
 VAL166  LYS551  ARG553  GLY616  TRP617  ASP618  TYR619  PRO620  LYS621  CYS622 
 ASP623  PHE694  ASN695  SER759  ASP760  ASP761  ALA762  ILE779  LEU786  VAL792 
 PHE793  MET794  SER795  GLU796  ALA797  LYS798  CYS799  TRP800  GLU811  SER814 

> <Gold.Protein.RotatedAtoms>
  152.4240  134.5903  159.9972 H   0  0  0  0  0  0  0  0  0  0  0  0  # atno 6907 bound_to 6896
  151.6045  133.3347  159.3062 H   0  0  0  0  0  0  0  0  0  0  0  0  # atno 6908 bound_to 6896
  150.8128  134.7331  159.6769 H   0  0  0  0  0  0  0  0  0  0  0  0  # atno 6909 bound_to 6896
  145.9291  139.3793  143.0432 H   0  0  0  0  0  0  0  0  0  0  0  0  # atno 7974 bound_to 7965
  154.7124  140.0518  157.0562 H   0  0  0  0  0  0  0  0  0  0  0  0  # atno 8008 bound_to 7997
  155.0537  140.3182  155.4664 H   0  0  0  0  0  0  0  0  0  0  0  0  # atno 8009 bound_to 7997
  156.2793  140.2111  156.5663 H   0  0  0  0  0  0  0  0  0  0  0  0  # atno 8010 bound_to 7997
  140.2477  143.3494  152.0743 H   0  0  0  0  0  0  0  0  0  0  0  0  # atno 10167 bound_to 10162
  157.6646  130.9741  150.1397 H   0  0  0  0  0  0  0  0  0  0  0  0  # atno 10718 bound_to 10713
  153.8138  135.3125  155.3403 H   0  0  0  0  0  0  0  0  0  0  0  0  # atno 10763 bound_to 10752
  154.8040  135.4709  154.0350 H   0  0  0  0  0  0  0  0  0  0  0  0  # atno 10764 bound_to 10752
  153.1736  135.6882  153.8662 H   0  0  0  0  0  0  0  0  0  0  0  0  # atno 10765 bound_to 10752
  140.9252  133.7373  156.0857 H   0  0  0  0  0  0  0  0  0  0  0  0  # atno 11005 bound_to 11000
  145.8449  140.9560  143.0780 LP  0  0  0  0  0  0  0  0  0  0  0  0  # atno 17320 bound_to 7965
  144.6762  140.0332  143.7482 LP  0  0  0  0  0  0  0  0  0  0  0  0  # atno 17321 bound_to 7965
  139.5056  144.6798  151.6036 LP  0  0  0  0  0  0  0  0  0  0  0  0  # atno 17342 bound_to 10162
  140.6065  143.9515  150.6422 LP  0  0  0  0  0  0  0  0  0  0  0  0  # atno 17343 bound_to 10162
  156.2223  130.3675  149.8542 LP  0  0  0  0  0  0  0  0  0  0  0  0  # atno 17370 bound_to 10713
  156.6391  130.8697  151.3510 LP  0  0  0  0  0  0  0  0  0  0  0  0  # atno 17371 bound_to 10713
  140.7936  134.3590  157.5458 LP  0  0  0  0  0  0  0  0  0  0  0  0  # atno 17394 bound_to 11000
  139.8784  134.9155  156.3132 LP  0  0  0  0  0  0  0  0  0  0  0  0  # atno 17395 bound_to 11000

$$$$
