AV-unprocessed.smi:1145|AV-procd|sdf|4884|dock4
  -GOLD-   22720 3453D 1   1.00000     0.00000
 Structure written by MMmdl.
 36 37  0  0  0  0  0  0  0  0  1 V2000
  153.3133  139.3768  158.9302 C   0  0  0  0  0  0  0  0  0  0  0  0
  152.8021  140.7485  158.4692 C   0  0  2  0  0  0  0  0  0  0  0  0
  152.4869  141.6641  159.6715 C   0  0  0  0  0  0  0  0  0  0  0  0
  152.1685  143.0239  159.2707 N   0  0  0  0  0  0  0  0  0  0  0  0
  152.4141  144.1970  159.9529 C   0  0  0  0  0  0  0  0  0  0  0  0
  151.9575  145.2221  159.1752 C   0  0  0  0  0  0  0  0  0  0  0  0
  151.4403  144.5676  158.0224 C   0  0  0  0  0  0  0  0  0  0  0  0
  151.5632  143.2517  158.0846 N   0  0  0  0  0  0  0  0  0  0  0  0
  151.6145  140.5596  157.6375 N   0  0  0  0  0  0  0  0  0  0  0  0
  151.6025  140.0739  156.3856 C   0  0  0  0  0  0  0  0  0  0  0  0
  152.6112  139.6699  155.8058 O   0  0  0  0  0  0  0  0  0  0  0  0
  150.2454  140.0718  155.6700 C   0  0  1  0  0  0  0  0  0  0  0  0
  149.6315  141.4812  155.6693 C   0  0  0  0  0  0  0  0  0  0  0  0
  148.2428  141.4797  155.0109 C   0  0  0  0  0  0  0  0  0  0  0  0
  148.1928  140.6979  153.6894 C   0  0  0  0  0  0  0  0  0  0  0  0
  147.2532  140.8756  152.9175 O   0  0  0  0  0  0  0  0  0  0  0  0
  149.1629  139.8057  153.4215 N   0  0  0  0  0  0  0  0  0  0  0  0
  150.3688  139.5689  154.2158 C   0  0  0  0  0  0  0  0  0  0  0  0
  154.2124  139.4783  159.5386 H   0  0  0  0  0  0  0  0  0  0  0  0
  153.5635  138.7440  158.0782 H   0  0  0  0  0  0  0  0  0  0  0  0
  152.5655  138.8535  159.5274 H   0  0  0  0  0  0  0  0  0  0  0  0
  153.5992  141.2077  157.8815 H   0  0  0  0  0  0  0  0  0  0  0  0
  151.6595  141.2587  160.2565 H   0  0  0  0  0  0  0  0  0  0  0  0
  153.3464  141.7096  160.3413 H   0  0  0  0  0  0  0  0  0  0  0  0
  152.8946  144.2043  160.9203 H   0  0  0  0  0  0  0  0  0  0  0  0
  151.9908  146.2789  159.3950 H   0  0  0  0  0  0  0  0  0  0  0  0
  150.9819  145.0064  157.1485 H   0  0  0  0  0  0  0  0  0  0  0  0
  150.7365  140.8694  158.0282 H   0  0  0  0  0  0  0  0  0  0  0  0
  149.5682  139.4053  156.2081 H   0  0  0  0  0  0  0  0  0  0  0  0
  149.5482  141.8587  156.6896 H   0  0  0  0  0  0  0  0  0  0  0  0
  150.2834  142.1767  155.1376 H   0  0  0  0  0  0  0  0  0  0  0  0
  147.5199  141.0256  155.6894 H   0  0  0  0  0  0  0  0  0  0  0  0
  147.9098  142.5041  154.8410 H   0  0  0  0  0  0  0  0  0  0  0  0
  149.0849  139.2848  152.5598 H   0  0  0  0  0  0  0  0  0  0  0  0
  151.1959  140.0623  153.7028 H   0  0  0  0  0  0  0  0  0  0  0  0
  150.5876  138.5007  154.2052 H   0  0  0  0  0  0  0  0  0  0  0  0
  1  2  1  0  0  0  0
  1 19  1  0  0  0  0
  1 20  1  0  0  0  0
  1 21  1  0  0  0  0
  2  3  1  0  0  0  0
  2  9  1  0  0  0  0
  2 22  1  0  0  0  0
  3  4  1  0  0  0  0
  3 23  1  0  0  0  0
  3 24  1  0  0  0  0
  4  8  1  0  0  0  0
  4  5  1  0  0  0  0
  5  6  2  0  0  0  0
  5 25  1  0  0  0  0
  6  7  1  0  0  0  0
  6 26  1  0  0  0  0
  7  8  2  0  0  0  0
  7 27  1  0  0  0  0
  9 10  1  0  0  0  0
  9 28  1  0  0  0  0
 10 11  2  0  0  0  0
 10 12  1  0  0  0  0
 12 18  1  0  0  0  0
 12 13  1  0  0  0  0
 12 29  1  0  0  0  0
 13 14  1  0  0  0  0
 13 30  1  0  0  0  0
 13 31  1  0  0  0  0
 14 15  1  0  0  0  0
 14 32  1  0  0  0  0
 14 33  1  0  0  0  0
 15 16  2  0  0  0  0
 15 17  1  0  0  0  0
 17 18  1  0  0  0  0
 17 34  1  0  0  0  0
 18 35  1  0  0  0  0
 18 36  1  0  0  0  0
M  END
> <s_m_source_file>
AV-unprocessed.smi

> <i_m_source_file_index>
1145

> <i_lp_mmshare_version>
43012

> <i_f3d_flags>
0

> <s_epik_input>
bjFbY0hdW2NIXVtjSF1uMVtDSDJdW0NAQEhdKFtDSDNdKVtOSF1DKD1PKVtDQEBIXTJbQ0gyXVtDSDJdQyg9TylbTkhdW0NIMl0y

> <s_epik_cmdline>
J2VwaWtfcHl0aG9uJywgJy1waCcsICc3LjAnLCAnLXRuJywgJzgnLCAnLW1hJywgJzIwMCcsICctbWV0YWxfYmluZGluZycsICctaW1hZScsICc8aW5maWxlLm1hZT4nLCAnLW9tYWUnLCAnPG91dGZpbGUubWFlPic=

> <r_lp_tautomer_probability>
1

> <r_epik_Ionization_Penalty>
0.000314064

> <r_epik_Ionization_Penalty_Charging>
0

> <r_epik_Ionization_Penalty_Neutral>
0.000314064

> <r_epik_State_Penalty>
-0

> <r_epik_Charging_Adjusted_Penalty>
0

> <i_epik_Tot_Q>
0

> <i_epik_Tot_abs_Q>
0

> <r_epik_Metal_State_Penalty>
-0

> <b_epik_Metal_Only>
0

> <s_lp_Force_Field>
OPLS_2005

> <r_lp_Energy>
12.228

> <b_lp_Chiralities_Consistent>
1

> <s_lp_Variant>
AV-unprocessed.smi:1145-3

> <Gold.Version>
5.8.1

> <Gold.Id.Protein>
6NUR|6NUR_protein|mol2

> <Gold.PLP.Fitness>
43.7934

> <Gold.PLP.PLP>
-38.0788

> <Gold.PLP.part.hbond>
-2.0000

> <Gold.PLP.part.metal>
0.0000

> <Gold.PLP.part.buried>
-4.6885

> <Gold.PLP.part.nonpolar>
-31.8366

> <Gold.PLP.part.repulsive>
0.4475

> <Gold.PLP.ligand.clash>
0.0000

> <Gold.PLP.ligand.torsion>
0.5900

> <Gold.PLP.Chemscore.Hbond>
1.2880

> <Gold.PLP.Chemscore.CHOScore>
1.0000

> <Gold.PLP.Chemscore.Metal>
0.0000

> <Gold.Chemscore.Hbonds>
donor molecule, donor type, donor heavy atom, donor atom, acceptor molecule, acceptor atom, score
      L1  H    17    34       P1  7957  0.37
      P1  H  7997  8008       L1    11  1.00
      L1  C     7    27       P1  8028  0.98

> <Gold.PLP.Chemscore.Internal.Correction>
0.0306

> <Gold.Rescore>
     Score         DG    S(hbond)    S(metal)    S(lipo)     H(rot)  DE(clash)    DE(int)     intcor
     15.35     -16.21       1.50        0.00      88.35       1.80       0.26       0.60       ----

> <Gold.Chemscore.Fitness>
15.3540

> <Gold.Chemscore.DG>
-16.2119

> <Gold.Chemscore.ZeroCoef>
-5.4800

> <Gold.Chemscore.Hbond>
1.4964

> <Gold.Chemscore.Metal>
0.0000

> <Gold.Chemscore.Lipo>
88.3521

> <Gold.Chemscore.Internal_Hbond>
0.0000

> <Gold.Chemscore.DEClash>
0.2568

> <Gold.Chemscore.DEInternal>
0.6010

> <Gold.Chemscore.Rot>
1.7982

> <Gold.Chemscore.Internal.Correction>
   9.000000E+99

> <Gold.Chemscore.Hbonds>
donor molecule, donor type, donor heavy atom, donor atom, acceptor molecule, acceptor atom, score
      L1  H    17    34       P1  7957  0.36
      P1  H  7997  8008       L1    11  1.00

> <Gold.Chemscore.Hbond.Weighted>
-4.9981

> <Gold.Chemscore.Metal.Weighted>
-0.0000

> <Gold.Chemscore.Lipo.Weighted>
-10.3372

> <Gold.Chemscore.Internal_Hbond.Weighted>
0.0000

> <Gold.Chemscore.DEClash.Weighted>
0.2568

> <Gold.Chemscore.DEInternal.Weighted>
0.6010

> <Gold.Chemscore.Rot.Weighted>
4.6035

> <Gold.Chemscore.Internal.Correction.Weighted>
   9.000000E+99

> <Gold.Protein.RotatedTorsions>
[ 6907 6896 6895 6894 ] final  109.81 input  -60.11 | X-H torsion
[ 7974 7965 7964 7962 ] final   -0.20 input  175.53 | X-H torsion
[ 8008 7997 7996 7995 ] final  -35.51 input   59.86 | X-H torsion
[ 10167 10162 10161 10158 ] final  159.33 input  -65.29 | X-H torsion
[ 10718 10713 10712 10709 ] final   72.34 input   66.30 | X-H torsion
[ 10763 10752 10751 10750 ] final  139.43 input  -60.55 | X-H torsion
[ 11005 11000 10999 10996 ] final  -90.83 input  -57.11 | X-H torsion

> <Gold.Protein.ActiveResidues>
 VAL166  LYS551  ARG553  GLY616  TRP617  ASP618  TYR619  PRO620  LYS621  CYS622 
 ASP623  PHE694  ASN695  SER759  ASP760  ASP761  ALA762  ILE779  LEU786  VAL792 
 PHE793  MET794  SER795  GLU796  ALA797  LYS798  CYS799  TRP800  GLU811  SER814 

> <Gold.Protein.RotatedAtoms>
  152.5049  133.8890  159.7383 H   0  0  0  0  0  0  0  0  0  0  0  0  # atno 6907 bound_to 6896
  150.9333  133.6732  159.2813 H   0  0  0  0  0  0  0  0  0  0  0  0  # atno 6908 bound_to 6896
  151.4069  135.0984  159.9625 H   0  0  0  0  0  0  0  0  0  0  0  0  # atno 6909 bound_to 6896
  146.2429  140.1233  142.8340 H   0  0  0  0  0  0  0  0  0  0  0  0  # atno 7974 bound_to 7965
  154.4094  140.1655  156.2223 H   0  0  0  0  0  0  0  0  0  0  0  0  # atno 8008 bound_to 7997
  155.9353  140.3412  155.6259 H   0  0  0  0  0  0  0  0  0  0  0  0  # atno 8009 bound_to 7997
  155.7056  140.0750  157.2383 H   0  0  0  0  0  0  0  0  0  0  0  0  # atno 8010 bound_to 7997
  139.4832  144.4740  151.8537 H   0  0  0  0  0  0  0  0  0  0  0  0  # atno 10167 bound_to 10162
  157.6496  130.9574  150.0915 H   0  0  0  0  0  0  0  0  0  0  0  0  # atno 10718 bound_to 10713
  153.9061  135.3016  155.3448 H   0  0  0  0  0  0  0  0  0  0  0  0  # atno 10763 bound_to 10752
  154.7646  135.4917  153.9533 H   0  0  0  0  0  0  0  0  0  0  0  0  # atno 10764 bound_to 10752
  153.1218  135.6784  153.9423 H   0  0  0  0  0  0  0  0  0  0  0  0  # atno 10765 bound_to 10752
  141.1557  133.7717  156.9794 H   0  0  0  0  0  0  0  0  0  0  0  0  # atno 11005 bound_to 11000
  145.0387  140.8929  143.5065 LP  0  0  0  0  0  0  0  0  0  0  0  0  # atno 17320 bound_to 7965
  145.1310  139.2632  143.5539 LP  0  0  0  0  0  0  0  0  0  0  0  0  # atno 17321 bound_to 7965
  140.4211  144.2242  150.5887 LP  0  0  0  0  0  0  0  0  0  0  0  0  # atno 17342 bound_to 10162
  140.4873  143.2359  151.8870 LP  0  0  0  0  0  0  0  0  0  0  0  0  # atno 17343 bound_to 10162
  156.1863  130.3652  149.8969 LP  0  0  0  0  0  0  0  0  0  0  0  0  # atno 17370 bound_to 10713
  156.6909  130.8895  151.3588 LP  0  0  0  0  0  0  0  0  0  0  0  0  # atno 17371 bound_to 10713
  140.1076  134.9497  157.2017 LP  0  0  0  0  0  0  0  0  0  0  0  0  # atno 17394 bound_to 11000
  140.3236  134.2889  155.7241 LP  0  0  0  0  0  0  0  0  0  0  0  0  # atno 17395 bound_to 11000

$$$$
