AV-unprocessed.smi:2807|AV-procd|sdf|10823|dock2
  -GOLD-   2272015263D 1   1.00000     0.00000
 Structure written by MMmdl.
 31 32  0  0  0  0  0  0  0  0  2 V2000
  148.7701  141.8314  158.6526 O   0  0  0  0  0  0  0  0  0  0  0  0
  149.4319  141.3412  157.7299 C   0  0  0  0  0  0  0  0  0  0  0  0
  149.0828  140.3928  156.8139 N   0  5  0  0  0  0  0  0  0  0  0  0
  148.0729  140.5899  155.7758 C   0  0  1  0  0  0  0  0  0  0  0  0
  147.2916  141.8937  155.9856 C   0  0  0  0  0  0  0  0  0  0  0  0
  146.7807  142.2960  154.5933 C   0  0  0  0  0  0  0  0  0  0  0  0
  147.6236  141.5094  153.5755 C   0  0  0  0  0  0  0  0  0  0  0  0
  148.7088  140.7967  154.3955 C   0  0  2  0  0  0  0  0  0  0  0  0
  149.0949  139.5756  153.7983 O   0  0  0  0  0  0  0  0  0  0  0  0
  150.8711  141.8512  157.5047 C   0  0  0  0  0  0  0  0  0  0  0  0
  151.7197  140.8289  157.6395 F   0  0  0  0  0  0  0  0  0  0  0  0
  150.9920  142.3108  156.2547 F   0  0  0  0  0  0  0  0  0  0  0  0
  151.2340  142.9232  158.5321 C   0  0  0  0  0  0  0  0  0  0  0  0
  151.5266  144.2431  158.1187 C   0  0  0  0  0  0  0  0  0  0  0  0
  151.8813  145.1946  159.0936 C   0  0  0  0  0  0  0  0  0  0  0  0
  151.9283  144.7978  160.4433 C   0  0  0  0  0  0  0  0  0  0  0  0
  151.6155  143.4608  160.7582 C   0  0  0  0  0  0  0  0  0  0  0  0
  151.2736  142.5413  159.8315 N   0  0  0  0  0  0  0  0  0  0  0  0
  147.3623  139.7625  155.7151 H   0  0  0  0  0  0  0  0  0  0  0  0
  146.4825  141.7797  156.7077 H   0  0  0  0  0  0  0  0  0  0  0  0
  147.9548  142.6760  156.3601 H   0  0  0  0  0  0  0  0  0  0  0  0
  145.7242  142.0478  154.4787 H   0  0  0  0  0  0  0  0  0  0  0  0
  146.8759  143.3723  154.4437 H   0  0  0  0  0  0  0  0  0  0  0  0
  146.9864  140.7898  153.0564 H   0  0  0  0  0  0  0  0  0  0  0  0
  148.0583  142.1581  152.8139 H   0  0  0  0  0  0  0  0  0  0  0  0
  149.5807  141.4489  154.4738 H   0  0  0  0  0  0  0  0  0  0  0  0
  149.0174  139.6709  152.8616 H   0  0  0  0  0  0  0  0  0  0  0  0
  151.4915  144.5147  157.0739 H   0  0  0  0  0  0  0  0  0  0  0  0
  152.1165  146.2098  158.8103 H   0  0  0  0  0  0  0  0  0  0  0  0
  152.1989  145.4996  161.2180 H   0  0  0  0  0  0  0  0  0  0  0  0
  151.6406  143.1208  161.7829 H   0  0  0  0  0  0  0  0  0  0  0  0
  1  2  2  0  0  0  0
  2  3  1  0  0  0  0
  2 10  1  0  0  0  0
  3  4  1  0  0  0  0
  4  8  1  0  0  0  0
  4  5  1  0  0  0  0
  4 19  1  0  0  0  0
  5  6  1  0  0  0  0
  5 20  1  0  0  0  0
  5 21  1  0  0  0  0
  6  7  1  0  0  0  0
  6 22  1  0  0  0  0
  6 23  1  0  0  0  0
  7  8  1  0  0  0  0
  7 24  1  0  0  0  0
  7 25  1  0  0  0  0
  8  9  1  0  0  0  0
  8 26  1  0  0  0  0
  9 27  1  0  0  0  0
 10 11  1  0  0  0  0
 10 12  1  0  0  0  0
 10 13  1  0  0  0  0
 13 18  1  0  0  0  0
 13 14  2  0  0  0  0
 14 15  1  0  0  0  0
 14 28  1  0  0  0  0
 15 16  2  0  0  0  0
 15 29  1  0  0  0  0
 16 17  1  0  0  0  0
 16 30  1  0  0  0  0
 17 18  2  0  0  0  0
 17 31  1  0  0  0  0
M  CHG  1   3  -1
M  END
> <s_m_source_file>
AV-unprocessed.smi

> <i_m_source_file_index>
2807

> <i_lp_mmshare_version>
43012

> <i_f3d_flags>
0

> <s_epik_input>
bjFbY0hdW2NIXVtjSF1bY0hdYzFDKEYpKEYpQyg9TylbTkhdW0NAQEhdMltDSDJdW0NIMl1bQ0gyXVtDQEhdMltPSF0=

> <s_epik_cmdline>
J2VwaWtfcHl0aG9uJywgJy1waCcsICc3LjAnLCAnLXRuJywgJzgnLCAnLW1hJywgJzIwMCcsICctbWV0YWxfYmluZGluZycsICctaW1hZScsICc8aW5maWxlLm1hZT4nLCAnLW9tYWUnLCAnPG91dGZpbGUubWFlPic=

> <r_lp_tautomer_probability>
1

> <r_epik_Ionization_Penalty>
5.72231

> <r_epik_Ionization_Penalty_Charging>
5.72231

> <r_epik_Ionization_Penalty_Neutral>
5.49816e-06

> <r_epik_State_Penalty>
5.72227

> <r_epik_Charging_Adjusted_Penalty>
11.4446

> <i_epik_Tot_Q>
-1

> <i_epik_Tot_abs_Q>
1

> <r_epik_Metal_State_Penalty>
1.70075

> <b_epik_Metal_Only>
1

> <s_lp_Force_Field>
OPLS_2005

> <r_lp_Energy>
34.2298

> <b_lp_Chiralities_Consistent>
1

> <s_lp_Variant>
AV-unprocessed.smi:2807-8

> <Gold.Version>
5.8.1

> <Gold.Id.Protein>
6NUR|6NUR_protein|mol2

> <Gold.PLP.Fitness>
39.8447

> <Gold.PLP.PLP>
-38.9200

> <Gold.PLP.part.hbond>
-2.3706

> <Gold.PLP.part.metal>
0.0000

> <Gold.PLP.part.buried>
-5.7132

> <Gold.PLP.part.nonpolar>
-30.0302

> <Gold.PLP.part.repulsive>
0.1266

> <Gold.PLP.ligand.clash>
0.4522

> <Gold.PLP.ligand.torsion>
0.8535

> <Gold.PLP.Chemscore.Hbond>
1.0000

> <Gold.PLP.Chemscore.CHOScore>
0.0000

> <Gold.PLP.Chemscore.Metal>
0.0000

> <Gold.Chemscore.Hbonds>
donor molecule, donor type, donor heavy atom, donor atom, acceptor molecule, acceptor atom, score
      L1  H     9    27       P1  7957  1.00

> <Gold.PLP.Chemscore.Internal.Correction>
0.0840

> <Gold.Rescore>
     Score         DG    S(hbond)    S(metal)    S(lipo)     H(rot)  DE(clash)    DE(int)     intcor
     12.38     -14.61       1.00        0.00      93.23       2.00       0.07       2.16       ----

> <Gold.Chemscore.Fitness>
12.3786

> <Gold.Chemscore.DG>
-14.6092

> <Gold.Chemscore.ZeroCoef>
-5.4800

> <Gold.Chemscore.Hbond>
0.9976

> <Gold.Chemscore.Metal>
0.0000

> <Gold.Chemscore.Lipo>
93.2329

> <Gold.Chemscore.Internal_Hbond>
0.0000

> <Gold.Chemscore.DEClash>
0.0708

> <Gold.Chemscore.DEInternal>
2.1598

> <Gold.Chemscore.Rot>
1.9964

> <Gold.Chemscore.Internal.Correction>
   9.000000E+99

> <Gold.Chemscore.Hbonds>
donor molecule, donor type, donor heavy atom, donor atom, acceptor molecule, acceptor atom, score
      L1  H     9    27       P1  7957  0.99

> <Gold.Chemscore.Hbond.Weighted>
-3.3318

> <Gold.Chemscore.Metal.Weighted>
-0.0000

> <Gold.Chemscore.Lipo.Weighted>
-10.9083

> <Gold.Chemscore.Internal_Hbond.Weighted>
0.0000

> <Gold.Chemscore.DEClash.Weighted>
0.0708

> <Gold.Chemscore.DEInternal.Weighted>
2.1598

> <Gold.Chemscore.Rot.Weighted>
5.1108

> <Gold.Chemscore.Internal.Correction.Weighted>
   9.000000E+99

> <Gold.Protein.RotatedTorsions>
[ 6907 6896 6895 6894 ] final  132.53 input  -60.11 | X-H torsion
[ 7974 7965 7964 7962 ] final  -87.02 input  175.53 | X-H torsion
[ 8008 7997 7996 7995 ] final  -18.96 input   59.86 | X-H torsion
[ 10167 10162 10161 10158 ] final   79.39 input  -65.29 | X-H torsion
[ 10718 10713 10712 10709 ] final  157.26 input   66.30 | X-H torsion
[ 10763 10752 10751 10750 ] final -174.78 input  -60.55 | X-H torsion
[ 11005 11000 10999 10996 ] final   14.09 input  -57.11 | X-H torsion

> <Gold.Protein.ActiveResidues>
 VAL166  LYS551  ARG553  GLY616  TRP617  ASP618  TYR619  PRO620  LYS621  CYS622 
 ASP623  PHE694  ASN695  SER759  ASP760  ASP761  ALA762  ILE779  LEU786  VAL792 
 PHE793  MET794  SER795  GLU796  ALA797  LYS798  CYS799  TRP800  GLU811  SER814 

> <Gold.Protein.RotatedAtoms>
  152.3314  133.5963  159.5812 H   0  0  0  0  0  0  0  0  0  0  0  0  # atno 6907 bound_to 6896
  150.7425  133.9862  159.3601 H   0  0  0  0  0  0  0  0  0  0  0  0  # atno 6908 bound_to 6896
  151.7736  135.0780  160.0414 H   0  0  0  0  0  0  0  0  0  0  0  0  # atno 6909 bound_to 6896
  145.4721  140.9559  143.1911 H   0  0  0  0  0  0  0  0  0  0  0  0  # atno 7974 bound_to 7965
  154.4870  140.2102  155.9633 H   0  0  0  0  0  0  0  0  0  0  0  0  # atno 8008 bound_to 7997
  156.1250  140.3207  155.8233 H   0  0  0  0  0  0  0  0  0  0  0  0  # atno 8009 bound_to 7997
  155.4399  140.0509  157.3002 H   0  0  0  0  0  0  0  0  0  0  0  0  # atno 8010 bound_to 7997
  139.9608  144.5962  150.8074 H   0  0  0  0  0  0  0  0  0  0  0  0  # atno 10167 bound_to 10162
  157.1938  131.0661  151.2064 H   0  0  0  0  0  0  0  0  0  0  0  0  # atno 10718 bound_to 10713
  154.5921  135.2846  155.0624 H   0  0  0  0  0  0  0  0  0  0  0  0  # atno 10763 bound_to 10752
  154.1921  135.6439  153.5066 H   0  0  0  0  0  0  0  0  0  0  0  0  # atno 10764 bound_to 10752
  153.0125  135.5448  154.6611 H   0  0  0  0  0  0  0  0  0  0  0  0  # atno 10765 bound_to 10752
  140.4734  134.1008  155.7737 H   0  0  0  0  0  0  0  0  0  0  0  0  # atno 11005 bound_to 11000
  144.7939  139.6273  143.7101 LP  0  0  0  0  0  0  0  0  0  0  0  0  # atno 17320 bound_to 7965
  146.2390  139.5964  142.9504 LP  0  0  0  0  0  0  0  0  0  0  0  0  # atno 17321 bound_to 7965
  140.7553  143.3045  151.2998 LP  0  0  0  0  0  0  0  0  0  0  0  0  # atno 17342 bound_to 10162
  139.6555  144.0284  152.2657 LP  0  0  0  0  0  0  0  0  0  0  0  0  # atno 17343 bound_to 10162
  157.3834  130.7243  149.6646 LP  0  0  0  0  0  0  0  0  0  0  0  0  # atno 17370 bound_to 10713
  155.9708  130.4166  150.4239 LP  0  0  0  0  0  0  0  0  0  0  0  0  # atno 17371 bound_to 10713
  141.1566  133.8871  157.1961 LP  0  0  0  0  0  0  0  0  0  0  0  0  # atno 17394 bound_to 11000
  139.9871  135.0078  156.9887 LP  0  0  0  0  0  0  0  0  0  0  0  0  # atno 17395 bound_to 11000

$$$$
