AV-unprocessed.smi:1883|AV-procd|sdf|7642|dock8
  -GOLD-   22720 9373D 1   1.00000     0.00000
 Structure written by MMmdl.
 35 37  0  0  0  0  0  0  0  0  1 V2000
  152.1860  138.7195  155.6520 C   0  0  0  0  0  0  0  0  0  0  0  0
  150.8724  139.1683  155.0947 C   0  0  0  0  0  0  0  0  0  0  0  0
  150.1077  138.3705  154.3484 N   0  0  0  0  0  0  0  0  0  0  0  0
  149.0226  139.1752  154.0589 C   0  0  0  0  0  0  0  0  0  0  0  0
  147.8596  138.9120  153.3002 C   0  0  0  0  0  0  0  0  0  0  0  0
  146.8725  139.9063  153.1384 C   0  0  0  0  0  0  0  0  0  0  0  0
  147.0330  141.1754  153.7321 C   0  0  0  0  0  0  0  0  0  0  0  0
  148.1833  141.4579  154.4939 C   0  0  0  0  0  0  0  0  0  0  0  0
  149.1655  140.4619  154.6514 C   0  0  0  0  0  0  0  0  0  0  0  0
  150.3853  140.4138  155.3185 N   0  0  0  0  0  0  0  0  0  0  0  0
  150.9831  141.4952  156.0898 C   0  0  0  0  0  0  0  0  0  0  0  0
  150.2113  141.7929  157.3905 C   0  0  2  0  0  0  0  0  0  0  0  0
  149.1043  142.6301  157.1135 O   0  0  0  0  0  0  0  0  0  0  0  0
  151.1319  142.3769  158.4535 C   0  0  0  0  0  0  0  0  0  0  0  0
  151.0560  143.7473  158.7905 C   0  0  0  0  0  0  0  0  0  0  0  0
  151.9137  144.2897  159.7669 C   0  0  0  0  0  0  0  0  0  0  0  0
  151.8330  145.6035  160.0842 F   0  0  0  0  0  0  0  0  0  0  0  0
  152.8562  143.4666  160.4114 C   0  0  0  0  0  0  0  0  0  0  0  0
  152.9436  142.1023  160.0753 C   0  0  0  0  0  0  0  0  0  0  0  0
  152.0873  141.5579  159.0978 C   0  0  0  0  0  0  0  0  0  0  0  0
  152.1927  140.2453  158.7792 F   0  0  0  0  0  0  0  0  0  0  0  0
  152.4343  137.7216  155.2895 H   0  0  0  0  0  0  0  0  0  0  0  0
  152.1418  138.6891  156.7408 H   0  0  0  0  0  0  0  0  0  0  0  0
  152.9813  139.4003  155.3488 H   0  0  0  0  0  0  0  0  0  0  0  0
  147.7274  137.9432  152.8418 H   0  0  0  0  0  0  0  0  0  0  0  0
  145.9881  139.6945  152.5558 H   0  0  0  0  0  0  0  0  0  0  0  0
  146.2724  141.9314  153.6028 H   0  0  0  0  0  0  0  0  0  0  0  0
  148.3101  142.4284  154.9503 H   0  0  0  0  0  0  0  0  0  0  0  0
  152.0081  141.2069  156.3263 H   0  0  0  0  0  0  0  0  0  0  0  0
  151.0566  142.3910  155.4727 H   0  0  0  0  0  0  0  0  0  0  0  0
  149.7935  140.8606  157.7717 H   0  0  0  0  0  0  0  0  0  0  0  0
  149.3995  143.3506  156.5780 H   0  0  0  0  0  0  0  0  0  0  0  0
  150.3409  144.3905  158.2983 H   0  0  0  0  0  0  0  0  0  0  0  0
  153.5140  143.8823  161.1606 H   0  0  0  0  0  0  0  0  0  0  0  0
  153.6707  141.4724  160.5664 H   0  0  0  0  0  0  0  0  0  0  0  0
  1  2  1  0  0  0  0
  1 22  1  0  0  0  0
  1 23  1  0  0  0  0
  1 24  1  0  0  0  0
  2 10  1  0  0  0  0
  2  3  2  0  0  0  0
  3  4  1  0  0  0  0
  4  9  2  0  0  0  0
  4  5  1  0  0  0  0
  5  6  2  0  0  0  0
  5 25  1  0  0  0  0
  6  7  1  0  0  0  0
  6 26  1  0  0  0  0
  7  8  2  0  0  0  0
  7 27  1  0  0  0  0
  8  9  1  0  0  0  0
  8 28  1  0  0  0  0
  9 10  1  0  0  0  0
 10 11  1  0  0  0  0
 11 12  1  0  0  0  0
 11 29  1  0  0  0  0
 11 30  1  0  0  0  0
 12 13  1  0  0  0  0
 12 14  1  0  0  0  0
 12 31  1  0  0  0  0
 13 32  1  0  0  0  0
 14 20  1  0  0  0  0
 14 15  2  0  0  0  0
 15 16  1  0  0  0  0
 15 33  1  0  0  0  0
 16 17  1  0  0  0  0
 16 18  2  0  0  0  0
 18 19  1  0  0  0  0
 18 34  1  0  0  0  0
 19 20  2  0  0  0  0
 19 35  1  0  0  0  0
 20 21  1  0  0  0  0
M  END
> <s_m_source_file>
AV-unprocessed.smi

> <i_m_source_file_index>
1883

> <i_lp_mmshare_version>
43012

> <i_f3d_flags>
0

> <s_epik_input>
W2NIXTFbY0hdW2NIXVtjSF1jKGMxMiluKGMobjIpW0NIM10pW0NIMl1bQ0BIXShbT0hdKWMzW2NIXWMoRilbY0hdW2NIXWMzRg==

> <s_epik_cmdline>
J2VwaWtfcHl0aG9uJywgJy1waCcsICc3LjAnLCAnLXRuJywgJzgnLCAnLW1hJywgJzIwMCcsICctbWV0YWxfYmluZGluZycsICctaW1hZScsICc8aW5maWxlLm1hZT4nLCAnLW9tYWUnLCAnPG91dGZpbGUubWFlPic=

> <r_epik_Ionization_Penalty>
0.129664

> <r_epik_Ionization_Penalty_Charging>
0

> <r_epik_Ionization_Penalty_Neutral>
0.129664

> <r_epik_State_Penalty>
0.119073

> <r_epik_Charging_Adjusted_Penalty>
0.119073

> <i_epik_Tot_Q>
0

> <i_epik_Tot_abs_Q>
0

> <r_epik_Metal_State_Penalty>
0.000131867

> <b_epik_Metal_Only>
0

> <s_lp_Force_Field>
OPLS_2005

> <r_lp_Energy>
11.5832

> <b_lp_Chiralities_Consistent>
1

> <s_lp_Variant>
AV-unprocessed.smi:1883-1

> <Gold.Version>
5.8.1

> <Gold.Id.Protein>
6NUR|6NUR_protein|mol2

> <Gold.PLP.Fitness>
51.2008

> <Gold.PLP.PLP>
-49.8196

> <Gold.PLP.part.hbond>
-1.0000

> <Gold.PLP.part.metal>
0.0000

> <Gold.PLP.part.buried>
-2.9418

> <Gold.PLP.part.nonpolar>
-47.2955

> <Gold.PLP.part.repulsive>
0.2159

> <Gold.PLP.ligand.clash>
0.0000

> <Gold.PLP.ligand.torsion>
0.7133

> <Gold.PLP.Chemscore.Hbond>
0.9280

> <Gold.PLP.Chemscore.CHOScore>
0.0000

> <Gold.PLP.Chemscore.Metal>
0.0000

> <Gold.Chemscore.Hbonds>
donor molecule, donor type, donor heavy atom, donor atom, acceptor molecule, acceptor atom, score
      L1  H    13    32       P1  8028  0.88

> <Gold.PLP.Chemscore.Internal.Correction>
0.0238

> <Gold.Rescore>
     Score         DG    S(hbond)    S(metal)    S(lipo)     H(rot)  DE(clash)    DE(int)     intcor
     17.76     -18.49       0.96        0.00     124.98       1.88       0.15       0.58       ----

> <Gold.Chemscore.Fitness>
17.7596

> <Gold.Chemscore.DG>
-18.4880

> <Gold.Chemscore.ZeroCoef>
-5.4800

> <Gold.Chemscore.Hbond>
0.9606

> <Gold.Chemscore.Metal>
0.0000

> <Gold.Chemscore.Lipo>
124.9779

> <Gold.Chemscore.Internal_Hbond>
0.0000

> <Gold.Chemscore.DEClash>
0.1453

> <Gold.Chemscore.DEInternal>
0.5831

> <Gold.Chemscore.Rot>
1.8839

> <Gold.Chemscore.Internal.Correction>
   9.000000E+99

> <Gold.Chemscore.Hbonds>
donor molecule, donor type, donor heavy atom, donor atom, acceptor molecule, acceptor atom, score
      L1  H    13    32       P1  8028  0.86

> <Gold.Chemscore.Hbond.Weighted>
-3.2083

> <Gold.Chemscore.Metal.Weighted>
-0.0000

> <Gold.Chemscore.Lipo.Weighted>
-14.6224

> <Gold.Chemscore.Internal_Hbond.Weighted>
0.0000

> <Gold.Chemscore.DEClash.Weighted>
0.1453

> <Gold.Chemscore.DEInternal.Weighted>
0.5831

> <Gold.Chemscore.Rot.Weighted>
4.8227

> <Gold.Chemscore.Internal.Correction.Weighted>
   9.000000E+99

> <Gold.Protein.RotatedTorsions>
[ 6907 6896 6895 6894 ] final -124.36 input  -60.11 | X-H torsion
[ 7974 7965 7964 7962 ] final  149.24 input  175.53 | X-H torsion
[ 8008 7997 7996 7995 ] final  145.69 input   59.86 | X-H torsion
[ 10167 10162 10161 10158 ] final -123.86 input  -65.29 | X-H torsion
[ 10718 10713 10712 10709 ] final    6.14 input   66.30 | X-H torsion
[ 10763 10752 10751 10750 ] final   45.59 input  -60.55 | X-H torsion
[ 11005 11000 10999 10996 ] final  -47.68 input  -57.11 | X-H torsion

> <Gold.Protein.ActiveResidues>
 VAL166  LYS551  ARG553  GLY616  TRP617  ASP618  TYR619  PRO620  LYS621  CYS622 
 ASP623  PHE694  ASN695  SER759  ASP760  ASP761  ALA762  ILE779  LEU786  VAL792 
 PHE793  MET794  SER795  GLU796  ALA797  LYS798  CYS799  TRP800  GLU811  SER814 

> <Gold.Protein.RotatedAtoms>
  150.8760  133.7438  159.2946 H   0  0  0  0  0  0  0  0  0  0  0  0  # atno 6907 bound_to 6896
  151.5035  135.1061  159.9844 H   0  0  0  0  0  0  0  0  0  0  0  0  # atno 6908 bound_to 6896
  152.4728  133.8023  159.7015 H   0  0  0  0  0  0  0  0  0  0  0  0  # atno 6909 bound_to 6896
  144.8452  139.6256  143.5998 H   0  0  0  0  0  0  0  0  0  0  0  0  # atno 7974 bound_to 7965
  156.2876  140.2202  156.5256 H   0  0  0  0  0  0  0  0  0  0  0  0  # atno 8008 bound_to 7997
  154.7492  140.0481  157.0900 H   0  0  0  0  0  0  0  0  0  0  0  0  # atno 8009 bound_to 7997
  155.0132  140.3115  155.4825 H   0  0  0  0  0  0  0  0  0  0  0  0  # atno 8010 bound_to 7997
  139.9990  143.5560  152.2311 H   0  0  0  0  0  0  0  0  0  0  0  0  # atno 10167 bound_to 10162
  156.9177  130.5779  149.5647 H   0  0  0  0  0  0  0  0  0  0  0  0  # atno 10718 bound_to 10713
  152.9822  135.6035  154.3461 H   0  0  0  0  0  0  0  0  0  0  0  0  # atno 10763 bound_to 10752
  154.3154  135.2770  155.2547 H   0  0  0  0  0  0  0  0  0  0  0  0  # atno 10764 bound_to 10752
  154.4738  135.5935  153.6396 H   0  0  0  0  0  0  0  0  0  0  0  0  # atno 10765 bound_to 10752
  141.0655  133.6695  156.3332 H   0  0  0  0  0  0  0  0  0  0  0  0  # atno 11005 bound_to 11000
  146.2738  139.6701  142.9277 LP  0  0  0  0  0  0  0  0  0  0  0  0  # atno 17320 bound_to 7965
  145.4611  141.0433  143.2751 LP  0  0  0  0  0  0  0  0  0  0  0  0  # atno 17321 bound_to 7965
  139.6285  144.7641  151.2586 LP  0  0  0  0  0  0  0  0  0  0  0  0  # atno 17342 bound_to 10162
  140.7426  143.6521  150.8239 LP  0  0  0  0  0  0  0  0  0  0  0  0  # atno 17343 bound_to 10162
  156.0505  130.5575  150.8979 LP  0  0  0  0  0  0  0  0  0  0  0  0  # atno 17370 bound_to 10713
  157.5927  131.0944  150.9092 LP  0  0  0  0  0  0  0  0  0  0  0  0  # atno 17371 bound_to 10713
  140.5782  134.5772  157.5473 LP  0  0  0  0  0  0  0  0  0  0  0  0  # atno 17394 bound_to 11000
  139.9472  134.7680  156.0533 LP  0  0  0  0  0  0  0  0  0  0  0  0  # atno 17395 bound_to 11000

$$$$
