AV-unprocessed.smi:1741|AV-procd|sdf|7019|dock8
  -GOLD-   22720 8233D 1   1.00000     0.00000
 Structure written by MMmdl.
 38 39  0  0  0  0  0  0  0  0  1 V2000
  143.8422  133.3970  151.5870 C   0  0  0  0  0  0  0  0  0  0  0  0
  144.2293  134.4927  150.5871 C   0  0  0  0  0  0  0  0  0  0  0  0
  144.6725  135.6979  151.2599 N   0  0  0  0  0  0  0  0  0  0  0  0
  145.9061  136.3137  151.1842 C   0  0  0  0  0  0  0  0  0  0  0  0
  145.8233  137.4108  151.9876 C   0  0  0  0  0  0  0  0  0  0  0  0
  146.8726  138.3396  152.1993 N   0  0  0  0  0  0  0  0  0  0  0  0
  147.0713  139.1083  153.2820 C   0  0  0  0  0  0  0  0  0  0  0  0
  146.3729  139.0959  154.2954 O   0  0  0  0  0  0  0  0  0  0  0  0
  148.1393  139.9026  153.1219 N   0  0  0  0  0  0  0  0  0  0  0  0
  148.6316  140.8777  154.0933 C   0  0  1  0  0  0  0  0  0  0  0  0
  147.4413  141.6266  154.7119 C   0  0  0  0  0  0  0  0  0  0  0  0
  149.4882  140.1669  155.1590 C   0  0  1  0  0  0  0  0  0  0  0  0
  150.6027  139.2833  154.5919 C   0  0  0  0  0  0  0  0  0  0  0  0
  151.5942  139.2669  155.7317 C   0  0  0  0  0  0  0  0  0  0  0  0
  151.4984  140.7008  156.2414 C   0  0  0  0  0  0  0  0  0  0  0  0
  150.1615  141.1201  155.9799 O   0  0  0  0  0  0  0  0  0  0  0  0
  144.5040  137.4026  152.5225 C   0  0  0  0  0  0  0  0  0  0  0  0
  143.8168  136.3626  152.0748 N   0  0  0  0  0  0  0  0  0  0  0  0
  143.5051  132.4997  151.0679 H   0  0  0  0  0  0  0  0  0  0  0  0
  143.0340  133.7278  152.2402 H   0  0  0  0  0  0  0  0  0  0  0  0
  144.6890  133.1191  152.2153 H   0  0  0  0  0  0  0  0  0  0  0  0
  145.0259  134.1424  149.9289 H   0  0  0  0  0  0  0  0  0  0  0  0
  143.3791  134.7410  149.9509 H   0  0  0  0  0  0  0  0  0  0  0  0
  146.7121  135.9272  150.5779 H   0  0  0  0  0  0  0  0  0  0  0  0
  147.5319  138.4403  151.4416 H   0  0  0  0  0  0  0  0  0  0  0  0
  148.6506  139.8361  152.2544 H   0  0  0  0  0  0  0  0  0  0  0  0
  149.2684  141.6089  153.5919 H   0  0  0  0  0  0  0  0  0  0  0  0
  147.7779  142.3790  155.4256 H   0  0  0  0  0  0  0  0  0  0  0  0
  146.7726  140.9448  155.2382 H   0  0  0  0  0  0  0  0  0  0  0  0
  146.8595  142.1402  153.9459 H   0  0  0  0  0  0  0  0  0  0  0  0
  148.8552  139.5610  155.8099 H   0  0  0  0  0  0  0  0  0  0  0  0
  150.2575  138.2877  154.3122 H   0  0  0  0  0  0  0  0  0  0  0  0
  151.0536  139.7479  153.7135 H   0  0  0  0  0  0  0  0  0  0  0  0
  151.2666  138.5692  156.5034 H   0  0  0  0  0  0  0  0  0  0  0  0
  152.6022  138.9896  155.4227 H   0  0  0  0  0  0  0  0  0  0  0  0
  151.7432  140.7830  157.3006 H   0  0  0  0  0  0  0  0  0  0  0  0
  152.1781  141.3481  155.6858 H   0  0  0  0  0  0  0  0  0  0  0  0
  144.0241  138.0931  153.2000 H   0  0  0  0  0  0  0  0  0  0  0  0
  1  2  1  0  0  0  0
  1 19  1  0  0  0  0
  1 20  1  0  0  0  0
  1 21  1  0  0  0  0
  2  3  1  0  0  0  0
  2 22  1  0  0  0  0
  2 23  1  0  0  0  0
  3 18  1  0  0  0  0
  3  4  1  0  0  0  0
  4  5  2  0  0  0  0
  4 24  1  0  0  0  0
  5  6  1  0  0  0  0
  5 17  1  0  0  0  0
  6  7  1  0  0  0  0
  6 25  1  0  0  0  0
  7  8  2  0  0  0  0
  7  9  1  0  0  0  0
  9 10  1  0  0  0  0
  9 26  1  0  0  0  0
 10 11  1  0  0  0  0
 10 12  1  0  0  0  0
 10 27  1  0  0  0  0
 11 28  1  0  0  0  0
 11 29  1  0  0  0  0
 11 30  1  0  0  0  0
 12 16  1  0  0  0  0
 12 13  1  0  0  0  0
 12 31  1  0  0  0  0
 13 14  1  0  0  0  0
 13 32  1  0  0  0  0
 13 33  1  0  0  0  0
 14 15  1  0  0  0  0
 14 34  1  0  0  0  0
 14 35  1  0  0  0  0
 15 16  1  0  0  0  0
 15 36  1  0  0  0  0
 15 37  1  0  0  0  0
 17 18  2  0  0  0  0
 17 38  1  0  0  0  0
M  END
> <s_m_source_file>
AV-unprocessed.smi

> <i_m_source_file_index>
1741

> <i_lp_mmshare_version>
43012

> <i_f3d_flags>
0

> <s_epik_input>
W0NIM11bQ0gyXW4xW2NIXWMoW2NIXW4xKVtOSF1DKD1PKVtOSF1bQ0BIXShbQ0gzXSlbQ0BASF0yW0NIMl1bQ0gyXVtDSDJdTzI=

> <s_epik_cmdline>
J2VwaWtfcHl0aG9uJywgJy1waCcsICc3LjAnLCAnLXRuJywgJzgnLCAnLW1hJywgJzIwMCcsICctbWV0YWxfYmluZGluZycsICctaW1hZScsICc8aW5maWxlLm1hZT4nLCAnLW9tYWUnLCAnPG91dGZpbGUubWFlPic=

> <r_lp_tautomer_probability>
1

> <r_epik_Ionization_Penalty>
0.000179292

> <r_epik_Ionization_Penalty_Charging>
0

> <r_epik_Ionization_Penalty_Neutral>
0.000179292

> <r_epik_State_Penalty>
-0

> <r_epik_Charging_Adjusted_Penalty>
0

> <i_epik_Tot_Q>
0

> <i_epik_Tot_abs_Q>
0

> <r_epik_Metal_State_Penalty>
-0

> <b_epik_Metal_Only>
0

> <s_lp_Force_Field>
OPLS_2005

> <r_lp_Energy>
21.0752

> <b_lp_Chiralities_Consistent>
1

> <s_lp_Variant>
AV-unprocessed.smi:1741-4

> <Gold.Version>
5.8.1

> <Gold.Id.Protein>
6NUR|6NUR_protein|mol2

> <Gold.PLP.Fitness>
38.1399

> <Gold.PLP.PLP>
-32.4160

> <Gold.PLP.part.hbond>
-1.7843

> <Gold.PLP.part.metal>
0.0000

> <Gold.PLP.part.buried>
-1.7127

> <Gold.PLP.part.nonpolar>
-29.6886

> <Gold.PLP.part.repulsive>
0.5312

> <Gold.PLP.ligand.clash>
0.0000

> <Gold.PLP.ligand.torsion>
0.5033

> <Gold.PLP.Chemscore.Hbond>
0.8775

> <Gold.PLP.Chemscore.CHOScore>
1.3613

> <Gold.PLP.Chemscore.Metal>
0.0000

> <Gold.Chemscore.Hbonds>
donor molecule, donor type, donor heavy atom, donor atom, acceptor molecule, acceptor atom, score
      L1  H     9    26       P1  7957  0.83
      L1  C     4    24       P1  7948  0.59
      L1  C    17    38       P1 10175  0.78

> <Gold.PLP.Chemscore.Internal.Correction>
0.0140

> <Gold.Rescore>
     Score         DG    S(hbond)    S(metal)    S(lipo)     H(rot)  DE(clash)    DE(int)     intcor
     10.82     -13.41       0.97        0.00      70.16       1.38       0.04       2.55       ----

> <Gold.Chemscore.Fitness>
10.8217

> <Gold.Chemscore.DG>
-13.4093

> <Gold.Chemscore.ZeroCoef>
-5.4800

> <Gold.Chemscore.Hbond>
0.9733

> <Gold.Chemscore.Metal>
0.0000

> <Gold.Chemscore.Lipo>
70.1583

> <Gold.Chemscore.Internal_Hbond>
0.0000

> <Gold.Chemscore.DEClash>
0.0411

> <Gold.Chemscore.DEInternal>
2.5466

> <Gold.Chemscore.Rot>
1.3790

> <Gold.Chemscore.Internal.Correction>
   9.000000E+99

> <Gold.Chemscore.Hbonds>
donor molecule, donor type, donor heavy atom, donor atom, acceptor molecule, acceptor atom, score
      L1  H     9    26       P1  7957  0.80

> <Gold.Chemscore.Hbond.Weighted>
-3.2510

> <Gold.Chemscore.Metal.Weighted>
-0.0000

> <Gold.Chemscore.Lipo.Weighted>
-8.2085

> <Gold.Chemscore.Internal_Hbond.Weighted>
0.0000

> <Gold.Chemscore.DEClash.Weighted>
0.0411

> <Gold.Chemscore.DEInternal.Weighted>
2.5466

> <Gold.Chemscore.Rot.Weighted>
3.5302

> <Gold.Chemscore.Internal.Correction.Weighted>
   9.000000E+99

> <Gold.Protein.RotatedTorsions>
[ 6907 6896 6895 6894 ] final -161.87 input  -60.11 | X-H torsion
[ 7974 7965 7964 7962 ] final  -47.71 input  175.53 | X-H torsion
[ 8008 7997 7996 7995 ] final  -25.23 input   59.86 | X-H torsion
[ 10167 10162 10161 10158 ] final  151.77 input  -65.29 | X-H torsion
[ 10718 10713 10712 10709 ] final  165.84 input   66.30 | X-H torsion
[ 10763 10752 10751 10750 ] final  -56.12 input  -60.55 | X-H torsion
[ 11005 11000 10999 10996 ] final -161.27 input  -57.11 | X-H torsion

> <Gold.Protein.ActiveResidues>
 VAL166  LYS551  ARG553  GLY616  TRP617  ASP618  TYR619  PRO620  LYS621  CYS622 
 ASP623  PHE694  ASN695  SER759  ASP760  ASP761  ALA762  ILE779  LEU786  VAL792 
 PHE793  MET794  SER795  GLU796  ALA797  LYS798  CYS799  TRP800  GLU811  SER814 

> <Gold.Protein.RotatedAtoms>
  151.3714  133.3853  159.2699 H   0  0  0  0  0  0  0  0  0  0  0  0  # atno 6907 bound_to 6896
  150.9648  134.9031  159.7763 H   0  0  0  0  0  0  0  0  0  0  0  0  # atno 6908 bound_to 6896
  152.5163  134.3674  159.9358 H   0  0  0  0  0  0  0  0  0  0  0  0  # atno 6909 bound_to 6896
  145.9587  140.7500  142.9468 H   0  0  0  0  0  0  0  0  0  0  0  0  # atno 7974 bound_to 7965
  154.4487  140.1932  156.0587 H   0  0  0  0  0  0  0  0  0  0  0  0  # atno 8008 bound_to 7997
  156.0599  140.3298  155.7422 H   0  0  0  0  0  0  0  0  0  0  0  0  # atno 8009 bound_to 7997
  155.5427  140.0588  157.2857 H   0  0  0  0  0  0  0  0  0  0  0  0  # atno 8010 bound_to 7997
  139.4838  144.5413  151.7559 H   0  0  0  0  0  0  0  0  0  0  0  0  # atno 10167 bound_to 10162
  157.0745  131.0375  151.2599 H   0  0  0  0  0  0  0  0  0  0  0  0  # atno 10718 bound_to 10713
  154.2016  135.6410  153.5088 H   0  0  0  0  0  0  0  0  0  0  0  0  # atno 10763 bound_to 10752
  153.0011  135.5452  154.6310 H   0  0  0  0  0  0  0  0  0  0  0  0  # atno 10764 bound_to 10752
  154.5724  135.2918  155.0787 H   0  0  0  0  0  0  0  0  0  0  0  0  # atno 10765 bound_to 10752
  140.6222  134.4738  157.5224 H   0  0  0  0  0  0  0  0  0  0  0  0  # atno 11005 bound_to 11000
  144.6810  140.2555  143.7326 LP  0  0  0  0  0  0  0  0  0  0  0  0  # atno 17320 bound_to 7965
  145.8070  139.1987  143.2015 LP  0  0  0  0  0  0  0  0  0  0  0  0  # atno 17321 bound_to 7965
  140.4953  144.1250  150.5959 LP  0  0  0  0  0  0  0  0  0  0  0  0  # atno 17342 bound_to 10162
  140.4124  143.2650  151.9816 LP  0  0  0  0  0  0  0  0  0  0  0  0  # atno 17343 bound_to 10162
  157.4851  130.7788  149.7452 LP  0  0  0  0  0  0  0  0  0  0  0  0  # atno 17370 bound_to 10713
  155.9941  130.3920  150.2873 LP  0  0  0  0  0  0  0  0  0  0  0  0  # atno 17371 bound_to 10713
  139.9149  134.8268  156.1401 LP  0  0  0  0  0  0  0  0  0  0  0  0  # atno 17394 bound_to 11000
  141.0734  133.6786  156.2187 LP  0  0  0  0  0  0  0  0  0  0  0  0  # atno 17395 bound_to 11000

$$$$
