AV-unprocessed.smi:3349|AV-procd|sdf|12931|dock1
  -GOLD-   2272019363D 1   1.00000     0.00000
 Structure written by MMmdl.
 40 41  0  0  0  0  0  0  0  0  1 V2000
  151.8991  141.2621  157.6853 C   0  0  0  0  0  0  0  0  0  0  0  0
  150.6832  141.3293  158.6448 C   0  0  2  0  0  0  0  0  0  0  0  0
  149.3795  141.3637  157.8005 C   0  0  0  0  0  0  0  0  0  0  0  0
  149.4582  140.5092  156.6209 N   0  0  0  0  0  0  0  0  0  0  0  0
  148.9214  140.8044  155.4279 C   0  0  0  0  0  0  0  0  0  0  0  0
  148.2865  141.8375  155.2130 O   0  0  0  0  0  0  0  0  0  0  0  0
  149.1223  139.7686  154.3089 C   0  0  2  0  0  0  0  0  0  0  0  0
  147.8171  138.9780  154.0721 C   0  0  0  0  0  0  0  0  0  0  0  0
  150.2712  138.9009  154.5852 N   0  0  0  0  0  0  0  0  0  0  0  0
  150.3857  137.5669  154.5741 C   0  0  0  0  0  0  0  0  0  0  0  0
  151.5686  137.1183  154.9693 N   0  0  0  0  0  0  0  0  0  0  0  0
  152.1753  138.3061  155.2586 C   0  0  0  0  0  0  0  0  0  0  0  0
  151.4364  139.3992  155.0721 N   0  0  0  0  0  0  0  0  0  0  0  0
  150.7835  142.4441  159.6158 N   0  0  0  0  0  0  0  0  0  0  0  0
  152.0393  142.4276  160.3751 C   0  0  0  0  0  0  0  0  0  0  0  0
  152.1571  143.6027  161.3615 C   0  0  0  0  0  0  0  0  0  0  0  0
  152.0255  144.8323  160.6619 O   0  0  0  0  0  0  0  0  0  0  0  0
  150.7858  144.9241  159.9741 C   0  0  0  0  0  0  0  0  0  0  0  0
  150.6596  143.7598  158.9766 C   0  0  0  0  0  0  0  0  0  0  0  0
  151.8005  140.4760  156.9377 H   0  0  0  0  0  0  0  0  0  0  0  0
  152.8270  141.0378  158.2093 H   0  0  0  0  0  0  0  0  0  0  0  0
  152.0318  142.2040  157.1520 H   0  0  0  0  0  0  0  0  0  0  0  0
  150.6703  140.3951  159.2087 H   0  0  0  0  0  0  0  0  0  0  0  0
  148.5238  141.0014  158.3684 H   0  0  0  0  0  0  0  0  0  0  0  0
  149.1573  142.3901  157.5028 H   0  0  0  0  0  0  0  0  0  0  0  0
  149.9621  139.6396  156.7181 H   0  0  0  0  0  0  0  0  0  0  0  0
  149.3529  140.3068  153.3879 H   0  0  0  0  0  0  0  0  0  0  0  0
  146.9632  139.6471  153.9595 H   0  0  0  0  0  0  0  0  0  0  0  0
  147.6011  138.3020  154.9007 H   0  0  0  0  0  0  0  0  0  0  0  0
  147.8748  138.3811  153.1614 H   0  0  0  0  0  0  0  0  0  0  0  0
  149.5868  136.9037  154.2754 H   0  0  0  0  0  0  0  0  0  0  0  0
  153.1868  138.3666  155.6328 H   0  0  0  0  0  0  0  0  0  0  0  0
  152.1239  141.5155  160.9623 H   0  0  0  0  0  0  0  0  0  0  0  0
  152.8872  142.4441  159.6886 H   0  0  0  0  0  0  0  0  0  0  0  0
  151.3943  143.5329  162.1388 H   0  0  0  0  0  0  0  0  0  0  0  0
  153.1256  143.5807  161.8613 H   0  0  0  0  0  0  0  0  0  0  0  0
  149.9607  144.9133  160.6882 H   0  0  0  0  0  0  0  0  0  0  0  0
  150.7415  145.8781  159.4488 H   0  0  0  0  0  0  0  0  0  0  0  0
  151.4180  143.8663  158.1994 H   0  0  0  0  0  0  0  0  0  0  0  0
  149.6912  143.8620  158.4906 H   0  0  0  0  0  0  0  0  0  0  0  0
  1  2  1  0  0  0  0
  1 20  1  0  0  0  0
  1 21  1  0  0  0  0
  1 22  1  0  0  0  0
  2  3  1  0  0  0  0
  2 14  1  0  0  0  0
  2 23  1  0  0  0  0
  3  4  1  0  0  0  0
  3 24  1  0  0  0  0
  3 25  1  0  0  0  0
  4  5  1  0  0  0  0
  4 26  1  0  0  0  0
  5  6  2  0  0  0  0
  5  7  1  0  0  0  0
  7  8  1  0  0  0  0
  7  9  1  0  0  0  0
  7 27  1  0  0  0  0
  8 28  1  0  0  0  0
  8 29  1  0  0  0  0
  8 30  1  0  0  0  0
  9 13  1  0  0  0  0
  9 10  1  0  0  0  0
 10 11  2  0  0  0  0
 10 31  1  0  0  0  0
 11 12  1  0  0  0  0
 12 13  2  0  0  0  0
 12 32  1  0  0  0  0
 14 19  1  0  0  0  0
 14 15  1  0  0  0  0
 15 16  1  0  0  0  0
 15 33  1  0  0  0  0
 15 34  1  0  0  0  0
 16 17  1  0  0  0  0
 16 35  1  0  0  0  0
 16 36  1  0  0  0  0
 17 18  1  0  0  0  0
 18 19  1  0  0  0  0
 18 37  1  0  0  0  0
 18 38  1  0  0  0  0
 19 39  1  0  0  0  0
 19 40  1  0  0  0  0
M  END
> <s_m_source_file>
AV-unprocessed.smi

> <i_m_source_file_index>
3349

> <i_lp_mmshare_version>
43012

> <i_f3d_flags>
0

> <s_epik_input>
W0NIMl0xW0NIMl1PW0NIMl1bQ0gyXU4xW0NASF0oW0NIM10pW0NIMl1bTkhdQyg9TylbQ0BIXShbQ0gzXSluMltjSF1uW2NIXW4y

> <s_epik_cmdline>
J2VwaWtfcHl0aG9uJywgJy1waCcsICc3LjAnLCAnLXRuJywgJzgnLCAnLW1hJywgJzIwMCcsICctbWV0YWxfYmluZGluZycsICctaW1hZScsICc8aW5maWxlLm1hZT4nLCAnLW9tYWUnLCAnPG91dGZpbGUubWFlPic=

> <r_lp_tautomer_probability>
1

> <r_epik_Ionization_Penalty>
0.211373

> <r_epik_Ionization_Penalty_Charging>
0

> <r_epik_Ionization_Penalty_Neutral>
0.211373

> <r_epik_State_Penalty>
0.201459

> <r_epik_Charging_Adjusted_Penalty>
0.201459

> <i_epik_Tot_Q>
0

> <i_epik_Tot_abs_Q>
0

> <r_epik_Metal_State_Penalty>
0.201458

> <b_epik_Metal_Only>
0

> <s_lp_Force_Field>
OPLS_2005

> <r_lp_Energy>
36.462

> <b_lp_Chiralities_Consistent>
1

> <s_lp_Variant>
AV-unprocessed.smi:3349-1

> <Gold.Version>
5.8.1

> <Gold.Id.Protein>
6NUR|6NUR_protein|mol2

> <Gold.PLP.Fitness>
40.6242

> <Gold.PLP.PLP>
-34.2831

> <Gold.PLP.part.hbond>
-2.8471

> <Gold.PLP.part.metal>
0.0000

> <Gold.PLP.part.buried>
-7.4820

> <Gold.PLP.part.nonpolar>
-25.2487

> <Gold.PLP.part.repulsive>
0.4934

> <Gold.PLP.ligand.clash>
0.0000

> <Gold.PLP.ligand.torsion>
1.1215

> <Gold.PLP.Chemscore.Hbond>
1.8080

> <Gold.PLP.Chemscore.CHOScore>
0.9887

> <Gold.PLP.Chemscore.Metal>
0.0000

> <Gold.Chemscore.Hbonds>
donor molecule, donor type, donor heavy atom, donor atom, acceptor molecule, acceptor atom, score
      P1  H  7989  7998       L1    13  0.48
      P1  H 10752 10763       L1    11  0.81
      L1  C    10    31       P1  7948  0.85

> <Gold.PLP.Chemscore.Internal.Correction>
0.1943

> <Gold.Rescore>
     Score         DG    S(hbond)    S(metal)    S(lipo)     H(rot)  DE(clash)    DE(int)     intcor
      9.67     -13.59       1.87        0.00      71.89       2.56       1.68       2.24       ----

> <Gold.Chemscore.Fitness>
9.6680

> <Gold.Chemscore.DG>
-13.5940

> <Gold.Chemscore.ZeroCoef>
-5.4800

> <Gold.Chemscore.Hbond>
1.8708

> <Gold.Chemscore.Metal>
0.0000

> <Gold.Chemscore.Lipo>
71.8926

> <Gold.Chemscore.Internal_Hbond>
0.0000

> <Gold.Chemscore.DEClash>
1.6841

> <Gold.Chemscore.DEInternal>
2.2419

> <Gold.Chemscore.Rot>
2.5570

> <Gold.Chemscore.Internal.Correction>
   9.000000E+99

> <Gold.Chemscore.Hbonds>
donor molecule, donor type, donor heavy atom, donor atom, acceptor molecule, acceptor atom, score
      P1  H  7989  7998       L1    13  0.05
      P1  H 10752 10763       L1    11  0.63

> <Gold.Chemscore.Hbond.Weighted>
-6.2484

> <Gold.Chemscore.Metal.Weighted>
-0.0000

> <Gold.Chemscore.Lipo.Weighted>
-8.4114

> <Gold.Chemscore.Internal_Hbond.Weighted>
0.0000

> <Gold.Chemscore.DEClash.Weighted>
1.6841

> <Gold.Chemscore.DEInternal.Weighted>
2.2419

> <Gold.Chemscore.Rot.Weighted>
6.5459

> <Gold.Chemscore.Internal.Correction.Weighted>
   9.000000E+99

> <Gold.Protein.RotatedTorsions>
[ 6907 6896 6895 6894 ] final   -8.46 input  -60.11 | X-H torsion
[ 7974 7965 7964 7962 ] final  -63.18 input  175.53 | X-H torsion
[ 8008 7997 7996 7995 ] final   42.83 input   59.86 | X-H torsion
[ 10167 10162 10161 10158 ] final   19.01 input  -65.29 | X-H torsion
[ 10718 10713 10712 10709 ] final -155.17 input   66.30 | X-H torsion
[ 10763 10752 10751 10750 ] final   42.52 input  -60.55 | X-H torsion
[ 11005 11000 10999 10996 ] final -152.47 input  -57.11 | X-H torsion

> <Gold.Protein.ActiveResidues>
 VAL166  LYS551  ARG553  GLY616  TRP617  ASP618  TYR619  PRO620  LYS621  CYS622 
 ASP623  PHE694  ASN695  SER759  ASP760  ASP761  ALA762  ILE779  LEU786  VAL792 
 PHE793  MET794  SER795  GLU796  ALA797  LYS798  CYS799  TRP800  GLU811  SER814 

> <Gold.Protein.RotatedAtoms>
  151.4333  135.1012  159.9648 H   0  0  0  0  0  0  0  0  0  0  0  0  # atno 6907 bound_to 6896
  152.4948  133.8597  159.7254 H   0  0  0  0  0  0  0  0  0  0  0  0  # atno 6908 bound_to 6896
  150.9140  133.6904  159.2875 H   0  0  0  0  0  0  0  0  0  0  0  0  # atno 6909 bound_to 6896
  145.7822  140.8756  143.0324 H   0  0  0  0  0  0  0  0  0  0  0  0  # atno 7974 bound_to 7965
  155.2927  140.3380  155.4251 H   0  0  0  0  0  0  0  0  0  0  0  0  # atno 8008 bound_to 7997
  156.2038  140.1743  156.7883 H   0  0  0  0  0  0  0  0  0  0  0  0  # atno 8009 bound_to 7997
  154.5594  140.0690  156.8779 H   0  0  0  0  0  0  0  0  0  0  0  0  # atno 8010 bound_to 7997
  140.5611  143.9335  150.6643 H   0  0  0  0  0  0  0  0  0  0  0  0  # atno 10167 bound_to 10162
  156.5092  130.8427  151.2640 H   0  0  0  0  0  0  0  0  0  0  0  0  # atno 10718 bound_to 10713
  152.9881  135.6129  154.2963 H   0  0  0  0  0  0  0  0  0  0  0  0  # atno 10763 bound_to 10752
  154.2686  135.2780  155.2750 H   0  0  0  0  0  0  0  0  0  0  0  0  # atno 10764 bound_to 10752
  154.5143  135.5832  153.6686 H   0  0  0  0  0  0  0  0  0  0  0  0  # atno 10765 bound_to 10752
  140.7185  134.3753  157.5187 H   0  0  0  0  0  0  0  0  0  0  0  0  # atno 11005 bound_to 11000
  144.6794  140.0005  143.7484 LP  0  0  0  0  0  0  0  0  0  0  0  0  # atno 17320 bound_to 7965
  146.0062  139.3132  143.0898 LP  0  0  0  0  0  0  0  0  0  0  0  0  # atno 17321 bound_to 7965
  140.2786  143.3405  152.1172 LP  0  0  0  0  0  0  0  0  0  0  0  0  # atno 17342 bound_to 10162
  139.5070  144.6825  151.5972 LP  0  0  0  0  0  0  0  0  0  0  0  0  # atno 17343 bound_to 10162
  157.7453  130.9955  150.2747 LP  0  0  0  0  0  0  0  0  0  0  0  0  # atno 17370 bound_to 10713
  156.3257  130.3792  149.7536 LP  0  0  0  0  0  0  0  0  0  0  0  0  # atno 17371 bound_to 10713
  139.8854  134.8939  156.2647 LP  0  0  0  0  0  0  0  0  0  0  0  0  # atno 17394 bound_to 11000
  141.0023  133.7144  156.0980 LP  0  0  0  0  0  0  0  0  0  0  0  0  # atno 17395 bound_to 11000

$$$$
