AV-unprocessed.smi:679|AV-procd|sdf|3321|dock7
  -GOLD-   22720 0293D 1   1.00000     0.00000
 Structure written by MMmdl.
 41 43  0  0  0  0  0  0  0  0  1 V2000
  147.9544  144.7635  160.8763 C   0  0  0  0  0  0  0  0  0  0  0  0
  149.2463  144.4823  160.1061 C   0  0  0  0  0  0  0  0  0  0  0  0
  149.1642  143.1882  159.5348 O   0  0  0  0  0  0  0  0  0  0  0  0
  149.6393  143.1415  158.1988 C   0  0  2  0  0  0  0  0  0  0  0  0
  149.4294  141.7985  157.4924 C   0  0  0  0  0  0  0  0  0  0  0  0
  150.7991  142.0427  156.8560 C   0  0  2  0  0  0  0  0  0  0  0  0
  151.5776  140.8189  156.7185 N   0  0  0  0  0  0  0  0  0  0  0  0
  151.4710  139.9632  155.6918 C   0  0  0  0  0  0  0  0  0  0  0  0
  150.6268  140.0683  154.8027 O   0  0  0  0  0  0  0  0  0  0  0  0
  152.4996  138.8349  155.6423 C   0  0  0  0  0  0  0  0  0  0  0  0
  152.2657  137.8928  156.7207 N   0  0  0  0  0  0  0  0  0  0  0  0
  151.4401  137.9471  157.7683 C   0  0  0  0  0  0  0  0  0  0  0  0
  151.5125  136.8489  158.5047 N   0  0  0  0  0  0  0  0  0  0  0  0
  152.4572  136.0850  157.8392 N   0  0  0  0  0  0  0  0  0  0  0  0
  152.9076  136.6991  156.7798 N   0  0  0  0  0  0  0  0  0  0  0  0
  151.1661  142.9007  158.0950 C   0  0  0  0  0  0  0  0  0  0  0  0
  152.0459  144.1297  157.8888 C   0  0  0  0  0  0  0  0  0  0  0  0
  152.5536  144.5677  159.2681 C   0  0  0  0  0  0  0  0  0  0  0  0
  152.3451  143.3678  160.1975 C   0  0  0  0  0  0  0  0  0  0  0  0
  151.8556  142.2354  159.2948 C   0  0  0  0  0  0  0  0  0  0  0  0
  147.9809  145.7522  161.3345 H   0  0  0  0  0  0  0  0  0  0  0  0
  147.8052  144.0306  161.6696 H   0  0  0  0  0  0  0  0  0  0  0  0
  147.0884  144.7233  160.2152 H   0  0  0  0  0  0  0  0  0  0  0  0
  149.3856  145.2334  159.3275 H   0  0  0  0  0  0  0  0  0  0  0  0
  150.1021  144.5414  160.7802 H   0  0  0  0  0  0  0  0  0  0  0  0
  149.3113  143.9912  157.5950 H   0  0  0  0  0  0  0  0  0  0  0  0
  149.4049  140.9508  158.1801 H   0  0  0  0  0  0  0  0  0  0  0  0
  148.5952  141.7775  156.7909 H   0  0  0  0  0  0  0  0  0  0  0  0
  150.7221  142.6341  155.9402 H   0  0  0  0  0  0  0  0  0  0  0  0
  152.2987  140.6540  157.4060 H   0  0  0  0  0  0  0  0  0  0  0  0
  152.4480  138.3161  154.6837 H   0  0  0  0  0  0  0  0  0  0  0  0
  153.5078  139.2392  155.7406 H   0  0  0  0  0  0  0  0  0  0  0  0
  150.7853  138.7790  157.9828 H   0  0  0  0  0  0  0  0  0  0  0  0
  152.8965  143.8734  157.2562 H   0  0  0  0  0  0  0  0  0  0  0  0
  151.5171  144.9403  157.3866 H   0  0  0  0  0  0  0  0  0  0  0  0
  153.6019  144.8646  159.2220 H   0  0  0  0  0  0  0  0  0  0  0  0
  151.9859  145.4247  159.6326 H   0  0  0  0  0  0  0  0  0  0  0  0
  153.2539  143.0957  160.7351 H   0  0  0  0  0  0  0  0  0  0  0  0
  151.5825  143.6069  160.9397 H   0  0  0  0  0  0  0  0  0  0  0  0
  151.2056  141.5453  159.8339 H   0  0  0  0  0  0  0  0  0  0  0  0
  152.7224  141.6595  158.9694 H   0  0  0  0  0  0  0  0  0  0  0  0
  1  2  1  0  0  0  0
  1 21  1  0  0  0  0
  1 22  1  0  0  0  0
  1 23  1  0  0  0  0
  2  3  1  0  0  0  0
  2 24  1  0  0  0  0
  2 25  1  0  0  0  0
  3  4  1  0  0  0  0
  4 16  1  0  0  0  0
  4  5  1  0  0  0  0
  4 26  1  0  0  0  0
  5  6  1  0  0  0  0
  5 27  1  0  0  0  0
  5 28  1  0  0  0  0
  6  7  1  0  0  0  0
  6 16  1  0  0  0  0
  6 29  1  0  0  0  0
  7  8  1  0  0  0  0
  7 30  1  0  0  0  0
  8  9  2  0  0  0  0
  8 10  1  0  0  0  0
 10 11  1  0  0  0  0
 10 31  1  0  0  0  0
 10 32  1  0  0  0  0
 11 15  1  0  0  0  0
 11 12  1  0  0  0  0
 12 13  2  0  0  0  0
 12 33  1  0  0  0  0
 13 14  1  0  0  0  0
 14 15  2  0  0  0  0
 16 20  1  0  0  0  0
 16 17  1  0  0  0  0
 17 18  1  0  0  0  0
 17 34  1  0  0  0  0
 17 35  1  0  0  0  0
 18 19  1  0  0  0  0
 18 36  1  0  0  0  0
 18 37  1  0  0  0  0
 19 20  1  0  0  0  0
 19 38  1  0  0  0  0
 19 39  1  0  0  0  0
 20 40  1  0  0  0  0
 20 41  1  0  0  0  0
M  END
> <s_m_source_file>
AV-unprocessed.smi

> <i_m_source_file_index>
679

> <i_lp_mmshare_version>
43012

> <i_f3d_flags>
0

> <s_epik_input>
W0NIMl0xW0NIMl1bQ0gyXVtDSDJdQzEyW0NASF0oT1tDSDJdW0NIM10pW0NIMl1bQ0BIXTJbTkhdQyg9TylbQ0gyXW4zW2NIXW5ubjM=

> <s_epik_cmdline>
J2VwaWtfcHl0aG9uJywgJy1waCcsICc3LjAnLCAnLXRuJywgJzgnLCAnLW1hJywgJzIwMCcsICctbWV0YWxfYmluZGluZycsICctaW1hZScsICc8aW5maWxlLm1hZT4nLCAnLW9tYWUnLCAnPG91dGZpbGUubWFlPic=

> <r_lp_tautomer_probability>
1

> <r_epik_Ionization_Penalty>
7.96741e-07

> <r_epik_Ionization_Penalty_Charging>
0

> <r_epik_Ionization_Penalty_Neutral>
7.96741e-07

> <r_epik_State_Penalty>
-0

> <r_epik_Charging_Adjusted_Penalty>
0

> <i_epik_Tot_Q>
0

> <i_epik_Tot_abs_Q>
0

> <r_epik_Metal_State_Penalty>
-0

> <b_epik_Metal_Only>
0

> <s_lp_Force_Field>
OPLS_2005

> <r_lp_Energy>
37

> <b_lp_Chiralities_Consistent>
1

> <s_lp_Variant>
AV-unprocessed.smi:679-3

> <Gold.Version>
5.8.1

> <Gold.Id.Protein>
6NUR|6NUR_protein|mol2

> <Gold.PLP.Fitness>
44.0746

> <Gold.PLP.PLP>
-38.6062

> <Gold.PLP.part.hbond>
-4.8755

> <Gold.PLP.part.metal>
0.0000

> <Gold.PLP.part.buried>
-4.4580

> <Gold.PLP.part.nonpolar>
-30.5659

> <Gold.PLP.part.repulsive>
0.3013

> <Gold.PLP.ligand.clash>
0.0000

> <Gold.PLP.ligand.torsion>
0.8070

> <Gold.PLP.Chemscore.Hbond>
2.2419

> <Gold.PLP.Chemscore.CHOScore>
0.0000

> <Gold.PLP.Chemscore.Metal>
0.0000

> <Gold.Chemscore.Hbonds>
donor molecule, donor type, donor heavy atom, donor atom, acceptor molecule, acceptor atom, score
      P1  H  6896  6907       L1    13  0.13
      P1  H  6933  6944       L1     3  0.11
      P1  H  7989  7998       L1     9  1.00
      P1  H 10752 10765       L1    15  0.98

> <Gold.PLP.Chemscore.Internal.Correction>
0.3567

> <Gold.Rescore>
     Score         DG    S(hbond)    S(metal)    S(lipo)     H(rot)  DE(clash)    DE(int)     intcor
     15.92     -16.86       1.91        0.00      95.36       2.41       0.14       0.81       ----

> <Gold.Chemscore.Fitness>
15.9194

> <Gold.Chemscore.DG>
-16.8649

> <Gold.Chemscore.ZeroCoef>
-5.4800

> <Gold.Chemscore.Hbond>
1.9145

> <Gold.Chemscore.Metal>
0.0000

> <Gold.Chemscore.Lipo>
95.3600

> <Gold.Chemscore.Internal_Hbond>
0.0000

> <Gold.Chemscore.DEClash>
0.1392

> <Gold.Chemscore.DEInternal>
0.8062

> <Gold.Chemscore.Rot>
2.4089

> <Gold.Chemscore.Internal.Correction>
   9.000000E+99

> <Gold.Chemscore.Hbonds>
donor molecule, donor type, donor heavy atom, donor atom, acceptor molecule, acceptor atom, score
      P1  H  6933  6944       L1     3  0.01
      P1  H  7989  7998       L1     9  0.26
      P1  H 10752 10765       L1    15  0.75

> <Gold.Chemscore.Hbond.Weighted>
-6.3946

> <Gold.Chemscore.Metal.Weighted>
-0.0000

> <Gold.Chemscore.Lipo.Weighted>
-11.1571

> <Gold.Chemscore.Internal_Hbond.Weighted>
0.0000

> <Gold.Chemscore.DEClash.Weighted>
0.1392

> <Gold.Chemscore.DEInternal.Weighted>
0.8062

> <Gold.Chemscore.Rot.Weighted>
6.1668

> <Gold.Chemscore.Internal.Correction.Weighted>
   9.000000E+99

> <Gold.Protein.RotatedTorsions>
[ 6907 6896 6895 6894 ] final  -13.82 input  -60.11 | X-H torsion
[ 7974 7965 7964 7962 ] final   22.84 input  175.53 | X-H torsion
[ 8008 7997 7996 7995 ] final  -35.14 input   59.86 | X-H torsion
[ 10167 10162 10161 10158 ] final  157.44 input  -65.29 | X-H torsion
[ 10718 10713 10712 10709 ] final -178.18 input   66.30 | X-H torsion
[ 10763 10752 10751 10750 ] final -131.93 input  -60.55 | X-H torsion
[ 11005 11000 10999 10996 ] final   37.12 input  -57.11 | X-H torsion

> <Gold.Protein.ActiveResidues>
 VAL166  LYS551  ARG553  GLY616  TRP617  ASP618  TYR619  PRO620  LYS621  CYS622 
 ASP623  PHE694  ASN695  SER759  ASP760  ASP761  ALA762  ILE779  LEU786  VAL792 
 PHE793  MET794  SER795  GLU796  ALA797  LYS798  CYS799  TRP800  GLU811  SER814 

> <Gold.Protein.RotatedAtoms>
  151.3490  135.0880  159.9396 H   0  0  0  0  0  0  0  0  0  0  0  0  # atno 6907 bound_to 6896
  152.5192  133.9371  159.7619 H   0  0  0  0  0  0  0  0  0  0  0  0  # atno 6908 bound_to 6896
  150.9743  133.6258  159.2762 H   0  0  0  0  0  0  0  0  0  0  0  0  # atno 6909 bound_to 6896
  146.2011  139.7829  142.8761 H   0  0  0  0  0  0  0  0  0  0  0  0  # atno 7974 bound_to 7965
  154.4103  140.1665  156.2163 H   0  0  0  0  0  0  0  0  0  0  0  0  # atno 8008 bound_to 7997
  155.9401  140.3408  155.6297 H   0  0  0  0  0  0  0  0  0  0  0  0  # atno 8009 bound_to 7997
  155.6999  140.0744  157.2405 H   0  0  0  0  0  0  0  0  0  0  0  0  # atno 8010 bound_to 7997
  139.4823  144.4917  151.8298 H   0  0  0  0  0  0  0  0  0  0  0  0  # atno 10167 bound_to 10162
  156.8404  130.9684  151.3100 H   0  0  0  0  0  0  0  0  0  0  0  0  # atno 10718 bound_to 10713
  154.8747  135.3814  154.4326 H   0  0  0  0  0  0  0  0  0  0  0  0  # atno 10763 bound_to 10752
  153.5019  135.7030  153.5832 H   0  0  0  0  0  0  0  0  0  0  0  0  # atno 10764 bound_to 10752
  153.4160  135.3913  155.2047 H   0  0  0  0  0  0  0  0  0  0  0  0  # atno 10765 bound_to 10752
  140.2257  134.3587  155.7985 H   0  0  0  0  0  0  0  0  0  0  0  0  # atno 11005 bound_to 11000
  145.3480  141.0301  143.3354 LP  0  0  0  0  0  0  0  0  0  0  0  0  # atno 17320 bound_to 7965
  144.8686  139.5072  143.6778 LP  0  0  0  0  0  0  0  0  0  0  0  0  # atno 17321 bound_to 7965
  140.4402  144.1997  150.5891 LP  0  0  0  0  0  0  0  0  0  0  0  0  # atno 17342 bound_to 10162
  140.4691  143.2420  151.9114 LP  0  0  0  0  0  0  0  0  0  0  0  0  # atno 17343 bound_to 10162
  157.6358  130.8766  149.9357 LP  0  0  0  0  0  0  0  0  0  0  0  0  # atno 17370 bound_to 10713
  156.0884  130.3666  150.0443 LP  0  0  0  0  0  0  0  0  0  0  0  0  # atno 17371 bound_to 10713
  141.2221  133.7218  156.8650 LP  0  0  0  0  0  0  0  0  0  0  0  0  # atno 17394 bound_to 11000
  140.1802  134.9038  157.2940 LP  0  0  0  0  0  0  0  0  0  0  0  0  # atno 17395 bound_to 11000

$$$$
