AV-unprocessed.smi:1608|AV-procd|sdf|6467|dock3
  -GOLD-   22720 7123D 1   1.00000     0.00000
 Structure written by MMmdl.
 42 43  0  0  0  0  0  0  0  0  1 V2000
  145.9006  131.7869  149.2981 C   0  0  0  0  0  0  0  0  0  0  0  0
  145.3475  132.7936  150.2081 N   0  0  0  0  0  0  0  0  0  0  0  0
  146.2125  133.8027  150.6745 C   0  0  0  0  0  0  0  0  0  0  0  0
  145.7993  134.7753  151.5170 C   0  0  0  0  0  0  0  0  0  0  0  0
  146.5991  135.8165  152.0119 N   0  0  0  0  0  0  0  0  0  0  0  0
  146.2340  136.9210  152.6900 C   0  0  0  0  0  0  0  0  0  0  0  0
  145.0805  137.2463  152.9708 O   0  0  0  0  0  0  0  0  0  0  0  0
  147.3051  137.6590  153.0160 N   0  0  0  0  0  0  0  0  0  0  0  0
  147.2657  138.9374  153.7196 C   0  0  2  0  0  0  0  0  0  0  0  0
  146.7889  140.0551  152.7781 C   0  0  0  0  0  0  0  0  0  0  0  0
  146.8029  141.3968  153.5184 C   0  0  0  0  0  0  0  0  0  0  0  0
  148.1943  141.6986  154.1020 C   0  0  0  0  0  0  0  0  0  0  0  0
  148.6875  140.5873  154.9413 N   0  0  0  0  0  0  0  0  0  0  0  0
  148.6025  140.7016  156.6762 S   0  0  0  0  0  0  0  0  0  0  0  0
  150.0936  141.6749  157.1392 C   0  0  0  0  0  0  0  0  0  0  0  0
  147.4128  141.4971  157.0160 O   0  0  0  0  0  0  0  0  0  0  0  0
  148.7523  139.3445  157.2238 O   0  0  0  0  0  0  0  0  0  0  0  0
  148.6611  139.2628  154.2881 C   0  0  0  0  0  0  0  0  0  0  0  0
  144.4085  134.7457  151.9174 C   0  0  0  0  0  0  0  0  0  0  0  0
  143.5736  133.7863  151.4731 C   0  0  0  0  0  0  0  0  0  0  0  0
  144.0316  132.7332  150.5638 C   0  0  0  0  0  0  0  0  0  0  0  0
  143.2793  131.8522  150.1465 O   0  0  0  0  0  0  0  0  0  0  0  0
  146.9751  131.8967  149.1471 H   0  0  0  0  0  0  0  0  0  0  0  0
  145.4240  131.8570  148.3194 H   0  0  0  0  0  0  0  0  0  0  0  0
  145.7325  130.7812  149.6867 H   0  0  0  0  0  0  0  0  0  0  0  0
  147.2147  133.7242  150.2846 H   0  0  0  0  0  0  0  0  0  0  0  0
  147.5847  135.7191  151.8169 H   0  0  0  0  0  0  0  0  0  0  0  0
  148.2163  137.3190  152.7451 H   0  0  0  0  0  0  0  0  0  0  0  0
  146.5655  138.8598  154.5512 H   0  0  0  0  0  0  0  0  0  0  0  0
  147.4370  140.1109  151.9023 H   0  0  0  0  0  0  0  0  0  0  0  0
  145.7833  139.8447  152.4124 H   0  0  0  0  0  0  0  0  0  0  0  0
  146.5083  142.1963  152.8381 H   0  0  0  0  0  0  0  0  0  0  0  0
  146.0573  141.3842  154.3124 H   0  0  0  0  0  0  0  0  0  0  0  0
  148.9037  141.8546  153.2886 H   0  0  0  0  0  0  0  0  0  0  0  0
  148.1735  142.6267  154.6722 H   0  0  0  0  0  0  0  0  0  0  0  0
  150.1311  141.7732  158.2238 H   0  0  0  0  0  0  0  0  0  0  0  0
  150.0403  142.6692  156.6994 H   0  0  0  0  0  0  0  0  0  0  0  0
  150.9925  141.1636  156.7997 H   0  0  0  0  0  0  0  0  0  0  0  0
  148.9754  138.4914  154.9911 H   0  0  0  0  0  0  0  0  0  0  0  0
  149.3983  139.2644  153.4841 H   0  0  0  0  0  0  0  0  0  0  0  0
  144.0286  135.5028  152.5881 H   0  0  0  0  0  0  0  0  0  0  0  0
  142.5422  133.7917  151.7938 H   0  0  0  0  0  0  0  0  0  0  0  0
  1  2  1  0  0  0  0
  1 23  1  0  0  0  0
  1 24  1  0  0  0  0
  1 25  1  0  0  0  0
  2 21  1  0  0  0  0
  2  3  1  0  0  0  0
  3  4  2  0  0  0  0
  3 26  1  0  0  0  0
  4  5  1  0  0  0  0
  4 19  1  0  0  0  0
  5  6  1  0  0  0  0
  5 27  1  0  0  0  0
  6  7  2  0  0  0  0
  6  8  1  0  0  0  0
  8  9  1  0  0  0  0
  8 28  1  0  0  0  0
  9 18  1  0  0  0  0
  9 10  1  0  0  0  0
  9 29  1  0  0  0  0
 10 11  1  0  0  0  0
 10 30  1  0  0  0  0
 10 31  1  0  0  0  0
 11 12  1  0  0  0  0
 11 32  1  0  0  0  0
 11 33  1  0  0  0  0
 12 13  1  0  0  0  0
 12 34  1  0  0  0  0
 12 35  1  0  0  0  0
 13 14  1  0  0  0  0
 13 18  1  0  0  0  0
 14 15  1  0  0  0  0
 14 16  2  0  0  0  0
 14 17  2  0  0  0  0
 15 36  1  0  0  0  0
 15 37  1  0  0  0  0
 15 38  1  0  0  0  0
 18 39  1  0  0  0  0
 18 40  1  0  0  0  0
 19 20  2  0  0  0  0
 19 41  1  0  0  0  0
 20 21  1  0  0  0  0
 20 42  1  0  0  0  0
 21 22  2  0  0  0  0
M  END
> <s_m_source_file>
AV-unprocessed.smi

> <i_m_source_file_index>
1608

> <i_lp_mmshare_version>
43012

> <i_f3d_flags>
0

> <s_epik_input>
Tz1jMVtjSF1bY0hdYyhbY0hdbjFbQ0gzXSlbTkhdQyg9TylbTkhdW0NAQEhdMltDSDJdW0NIMl1bQ0gyXU4oW0NIMl0yKVMoPU8pKD1PKVtDSDNd

> <s_epik_cmdline>
J2VwaWtfcHl0aG9uJywgJy1waCcsICc3LjAnLCAnLXRuJywgJzgnLCAnLW1hJywgJzIwMCcsICctbWV0YWxfYmluZGluZycsICctaW1hZScsICc8aW5maWxlLm1hZT4nLCAnLW9tYWUnLCAnPG91dGZpbGUubWFlPic=

> <r_lp_tautomer_probability>
1

> <r_epik_Ionization_Penalty>
2.44111e-05

> <r_epik_Ionization_Penalty_Charging>
5.7429e-06

> <r_epik_Ionization_Penalty_Neutral>
1.86682e-05

> <r_epik_State_Penalty>
-0

> <r_epik_Charging_Adjusted_Penalty>
5.7429e-06

> <i_epik_Tot_Q>
0

> <i_epik_Tot_abs_Q>
0

> <r_epik_Metal_State_Penalty>
-0

> <b_epik_Metal_Only>
0

> <s_lp_Force_Field>
OPLS_2005

> <r_lp_Energy>
12.0986

> <b_lp_Chiralities_Consistent>
1

> <s_lp_Variant>
AV-unprocessed.smi:1608-1

> <Gold.Version>
5.8.1

> <Gold.Id.Protein>
6NUR|6NUR_protein|mol2

> <Gold.PLP.Fitness>
39.5149

> <Gold.PLP.PLP>
-33.4815

> <Gold.PLP.part.hbond>
-1.7972

> <Gold.PLP.part.metal>
0.0000

> <Gold.PLP.part.buried>
-3.0196

> <Gold.PLP.part.nonpolar>
-31.0999

> <Gold.PLP.part.repulsive>
1.7745

> <Gold.PLP.ligand.clash>
0.0000

> <Gold.PLP.ligand.torsion>
1.2825

> <Gold.PLP.Chemscore.Hbond>
2.1800

> <Gold.PLP.Chemscore.CHOScore>
0.0000

> <Gold.PLP.Chemscore.Metal>
0.0000

> <Gold.Chemscore.Hbonds>
donor molecule, donor type, donor heavy atom, donor atom, acceptor molecule, acceptor atom, score
      L1  H     5    27       P1  7948  0.75
      L1  H     8    28       P1  7948  0.88
      P1  H 10785 10796       L1    22  0.55

> <Gold.PLP.Chemscore.Internal.Correction>
2.0583

> <Gold.Rescore>
     Score         DG    S(hbond)    S(metal)    S(lipo)     H(rot)  DE(clash)    DE(int)     intcor
     15.54     -20.02       2.46        0.00      75.91       1.00       1.80       2.69       ----

> <Gold.Chemscore.Fitness>
15.5379

> <Gold.Chemscore.DG>
-20.0188

> <Gold.Chemscore.ZeroCoef>
-5.4800

> <Gold.Chemscore.Hbond>
2.4602

> <Gold.Chemscore.Metal>
0.0000

> <Gold.Chemscore.Lipo>
75.9129

> <Gold.Chemscore.Internal_Hbond>
0.0000

> <Gold.Chemscore.DEClash>
1.7952

> <Gold.Chemscore.DEInternal>
2.6858

> <Gold.Chemscore.Rot>
1.0000

> <Gold.Chemscore.Internal.Correction>
   9.000000E+99

> <Gold.Chemscore.Hbonds>
donor molecule, donor type, donor heavy atom, donor atom, acceptor molecule, acceptor atom, score
      L1  H     5    27       P1  7948  0.71
      L1  H     8    28       P1  7948  0.84
      P1  H 10785 10796       L1    22  0.53

> <Gold.Chemscore.Hbond.Weighted>
-8.2170

> <Gold.Chemscore.Metal.Weighted>
-0.0000

> <Gold.Chemscore.Lipo.Weighted>
-8.8818

> <Gold.Chemscore.Internal_Hbond.Weighted>
0.0000

> <Gold.Chemscore.DEClash.Weighted>
1.7952

> <Gold.Chemscore.DEInternal.Weighted>
2.6858

> <Gold.Chemscore.Rot.Weighted>
2.5600

> <Gold.Chemscore.Internal.Correction.Weighted>
   9.000000E+99

> <Gold.Protein.RotatedTorsions>
[ 6907 6896 6895 6894 ] final  122.80 input  -60.11 | X-H torsion
[ 7974 7965 7964 7962 ] final    3.77 input  175.53 | X-H torsion
[ 8008 7997 7996 7995 ] final  153.89 input   59.86 | X-H torsion
[ 10167 10162 10161 10158 ] final  114.47 input  -65.29 | X-H torsion
[ 10718 10713 10712 10709 ] final  141.72 input   66.30 | X-H torsion
[ 10763 10752 10751 10750 ] final   52.78 input  -60.55 | X-H torsion
[ 11005 11000 10999 10996 ] final -153.42 input  -57.11 | X-H torsion

> <Gold.Protein.ActiveResidues>
 VAL166  LYS551  ARG553  GLY616  TRP617  ASP618  TYR619  PRO620  LYS621  CYS622 
 ASP623  PHE694  ASN695  SER759  ASP760  ASP761  ALA762  ILE779  LEU786  VAL792 
 PHE793  MET794  SER795  GLU796  ALA797  LYS798  CYS799  TRP800  GLU811  SER814 

> <Gold.Protein.RotatedAtoms>
  152.4213  133.7121  159.6484 H   0  0  0  0  0  0  0  0  0  0  0  0  # atno 6907 bound_to 6896
  150.8089  133.8447  159.3197 H   0  0  0  0  0  0  0  0  0  0  0  0  # atno 6908 bound_to 6896
  151.6163  135.1038  160.0143 H   0  0  0  0  0  0  0  0  0  0  0  0  # atno 6909 bound_to 6896
  146.2445  140.0635  142.8367 H   0  0  0  0  0  0  0  0  0  0  0  0  # atno 7974 bound_to 7965
  156.2559  140.1981  156.6561 H   0  0  0  0  0  0  0  0  0  0  0  0  # atno 8008 bound_to 7997
  154.6500  140.0573  156.9969 H   0  0  0  0  0  0  0  0  0  0  0  0  # atno 8009 bound_to 7997
  155.1433  140.3244  155.4450 H   0  0  0  0  0  0  0  0  0  0  0  0  # atno 8010 bound_to 7997
  139.6386  144.7122  151.2283 H   0  0  0  0  0  0  0  0  0  0  0  0  # atno 10167 bound_to 10162
  157.3888  131.1002  151.0667 H   0  0  0  0  0  0  0  0  0  0  0  0  # atno 10718 bound_to 10713
  152.9791  135.5801  154.4635 H   0  0  0  0  0  0  0  0  0  0  0  0  # atno 10763 bound_to 10752
  154.4207  135.2771  155.1979 H   0  0  0  0  0  0  0  0  0  0  0  0  # atno 10764 bound_to 10752
  154.3729  135.6164  153.5803 H   0  0  0  0  0  0  0  0  0  0  0  0  # atno 10765 bound_to 10752
  140.7083  134.3861  157.5201 H   0  0  0  0  0  0  0  0  0  0  0  0  # atno 11005 bound_to 11000
  145.0878  140.9264  143.4787 LP  0  0  0  0  0  0  0  0  0  0  0  0  # atno 17320 bound_to 7965
  145.0802  139.2965  143.5787 LP  0  0  0  0  0  0  0  0  0  0  0  0  # atno 17321 bound_to 7965
  140.7479  143.6351  150.8386 LP  0  0  0  0  0  0  0  0  0  0  0  0  # atno 17342 bound_to 10162
  139.9986  143.5769  152.2884 LP  0  0  0  0  0  0  0  0  0  0  0  0  # atno 17343 bound_to 10162
  157.1708  130.6266  149.5640 LP  0  0  0  0  0  0  0  0  0  0  0  0  # atno 17370 bound_to 10713
  155.9793  130.4786  150.6708 LP  0  0  0  0  0  0  0  0  0  0  0  0  # atno 17371 bound_to 10713
  139.8878  134.8872  156.2507 LP  0  0  0  0  0  0  0  0  0  0  0  0  # atno 17394 bound_to 11000
  141.0106  133.7098  156.1105 LP  0  0  0  0  0  0  0  0  0  0  0  0  # atno 17395 bound_to 11000

$$$$
