AV-unprocessed.smi:102|AV-procd|sdf|951|dock5
  -GOLD-   2262017483D 1   1.00000     0.00000
 Structure written by MMmdl.
 44 45  0  0  0  0  0  0  0  0  1 V2000
  146.5296  144.5143  160.7485 C   0  0  0  0  0  0  0  0  0  0  0  0
  146.6073  143.2225  159.9452 C   0  0  0  0  0  0  0  0  0  0  0  0
  145.8600  142.2736  160.1841 O   0  0  0  0  0  0  0  0  0  0  0  0
  147.5543  143.2674  158.9901 O   0  0  0  0  0  0  0  0  0  0  0  0
  147.7383  142.1699  158.1067 C   0  0  0  0  0  0  0  0  0  0  0  0
  148.9935  142.3606  157.2416 C   0  0  2  0  0  0  0  0  0  0  0  0
  149.0581  141.3562  156.2400 O   0  0  0  0  0  0  0  0  0  0  0  0
  150.3829  141.1447  155.8613 C   0  0  2  0  0  0  0  0  0  0  0  0
  150.5462  139.6701  155.5471 N   0  0  0  0  0  0  0  0  0  0  0  0
  149.4907  138.7928  155.7541 C   0  0  0  0  0  0  0  0  0  0  0  0
  149.5837  137.4604  155.5324 C   0  0  0  0  0  0  0  0  0  0  0  0
  148.5142  136.6757  155.7484 F   0  0  0  0  0  0  0  0  0  0  0  0
  150.8336  136.8683  155.0650 C   0  0  0  0  0  0  0  0  0  0  0  0
  151.0133  135.6748  154.8311 O   0  0  0  0  0  0  0  0  0  0  0  0
  151.8757  137.7833  154.8916 N   0  0  0  0  0  0  0  0  0  0  0  0
  151.7949  139.1578  155.1201 C   0  0  0  0  0  0  0  0  0  0  0  0
  152.7851  139.8665  154.9455 O   0  0  0  0  0  0  0  0  0  0  0  0
  151.3028  141.6844  156.9828 C   0  0  2  0  0  0  0  0  0  0  0  0
  152.1833  140.6923  157.5001 O   0  0  0  0  0  0  0  0  0  0  0  0
  151.6998  139.6408  158.1794 C   0  0  0  0  0  0  0  0  0  0  0  0
  152.8062  138.7543  158.7344 C   0  0  0  0  0  0  0  0  0  0  0  0
  150.5112  139.3772  158.3604 O   0  0  0  0  0  0  0  0  0  0  0  0
  150.2943  142.1552  158.0312 C   0  0  1  0  0  0  0  0  0  0  0  0
  150.7101  143.2796  158.8139 O   0  0  0  0  0  0  0  0  0  0  0  0
  151.9648  143.4391  159.2949 C   0  0  0  0  0  0  0  0  0  0  0  0
  152.1499  144.7836  159.9857 C   0  0  0  0  0  0  0  0  0  0  0  0
  152.8905  142.6321  159.2154 O   0  0  0  0  0  0  0  0  0  0  0  0
  152.7641  137.4179  154.5806 H   0  0  0  0  0  0  0  0  0  0  0  0
  145.8265  145.2050  160.2831 H   0  0  0  0  0  0  0  0  0  0  0  0
  147.5065  144.9956  160.7996 H   0  0  0  0  0  0  0  0  0  0  0  0
  146.1933  144.3102  161.7654 H   0  0  0  0  0  0  0  0  0  0  0  0
  147.8656  141.2818  158.7259 H   0  0  0  0  0  0  0  0  0  0  0  0
  146.8560  141.9920  157.4896 H   0  0  0  0  0  0  0  0  0  0  0  0
  148.9749  143.3310  156.7462 H   0  0  0  0  0  0  0  0  0  0  0  0
  150.5550  141.6734  154.9230 H   0  0  0  0  0  0  0  0  0  0  0  0
  148.5430  139.1783  156.1015 H   0  0  0  0  0  0  0  0  0  0  0  0
  151.8667  142.5104  156.5497 H   0  0  0  0  0  0  0  0  0  0  0  0
  153.4799  139.3377  159.3623 H   0  0  0  0  0  0  0  0  0  0  0  0
  153.3834  138.3162  157.9200 H   0  0  0  0  0  0  0  0  0  0  0  0
  152.3863  137.9471  159.3347 H   0  0  0  0  0  0  0  0  0  0  0  0
  150.1287  141.3305  158.7253 H   0  0  0  0  0  0  0  0  0  0  0  0
  151.2086  145.1301  160.4126 H   0  0  0  0  0  0  0  0  0  0  0  0
  152.5026  145.5284  159.2721 H   0  0  0  0  0  0  0  0  0  0  0  0
  152.8817  144.7004  160.7896 H   0  0  0  0  0  0  0  0  0  0  0  0
  1  2  1  0  0  0  0
  1 29  1  0  0  0  0
  1 30  1  0  0  0  0
  1 31  1  0  0  0  0
  2  3  2  0  0  0  0
  2  4  1  0  0  0  0
  4  5  1  0  0  0  0
  5  6  1  0  0  0  0
  5 32  1  0  0  0  0
  5 33  1  0  0  0  0
  6 23  1  0  0  0  0
  6  7  1  0  0  0  0
  6 34  1  0  0  0  0
  7  8  1  0  0  0  0
  8  9  1  0  0  0  0
  8 18  1  0  0  0  0
  8 35  1  0  0  0  0
  9 16  1  0  0  0  0
  9 10  1  0  0  0  0
 10 11  2  0  0  0  0
 10 36  1  0  0  0  0
 11 12  1  0  0  0  0
 11 13  1  0  0  0  0
 13 14  2  0  0  0  0
 13 15  1  0  0  0  0
 15 28  1  0  0  0  0
 15 16  1  0  0  0  0
 16 17  2  0  0  0  0
 18 19  1  0  0  0  0
 18 23  1  0  0  0  0
 18 37  1  0  0  0  0
 19 20  1  0  0  0  0
 20 21  1  0  0  0  0
 20 22  2  0  0  0  0
 21 38  1  0  0  0  0
 21 39  1  0  0  0  0
 21 40  1  0  0  0  0
 23 24  1  0  0  0  0
 23 41  1  0  0  0  0
 24 25  1  0  0  0  0
 25 26  1  0  0  0  0
 25 27  2  0  0  0  0
 26 42  1  0  0  0  0
 26 43  1  0  0  0  0
 26 44  1  0  0  0  0
M  END
> <s_m_source_file>
AV-unprocessed.smi

> <i_m_source_file_index>
102

> <i_lp_mmshare_version>
43012

> <i_f3d_flags>
0

> <s_epik_input>
W0NIM11DKD1PKU9bQ0gyXVtDQEBIXTFPW0NASF0oW0NAQEhdKE9DKD1PKVtDSDNdKVtDQEhdMU9DKD1PKVtDSDNdKW4yW2NIXWMoRiljKD1PKVtuSF1jMj1P

> <s_epik_cmdline>
J2VwaWtfcHl0aG9uJywgJy1waCcsICc3LjAnLCAnLXRuJywgJzgnLCAnLW1hJywgJzIwMCcsICctbWV0YWxfYmluZGluZycsICctaW1hZScsICc8aW5maWxlLm1hZT4nLCAnLW9tYWUnLCAnPG91dGZpbGUubWFlPic=

> <r_lp_tautomer_probability>
0.999537

> <r_epik_Ionization_Penalty>
0.058267

> <r_epik_Ionization_Penalty_Charging>
0.058267

> <r_epik_Ionization_Penalty_Neutral>
6.57791e-16

> <r_epik_State_Penalty>
0.0503774

> <r_epik_Charging_Adjusted_Penalty>
0.108644

> <i_epik_Tot_Q>
0

> <i_epik_Tot_abs_Q>
0

> <r_epik_Metal_State_Penalty>
2.6644

> <b_epik_Metal_Only>
0

> <s_epik_Chemistry_Notes>
This compound has an ester and may undergo hydrolysis at high or low pH. This compound contains an acetal/aminal-like group ( X-CH(R)-Y where X, Y are N, S, or O) that may be acid/base labile, releasing an aldehyde.

> <s_lp_Force_Field>
OPLS_2005

> <r_lp_Energy>
7.12504

> <b_lp_Chiralities_Consistent>
1

> <s_lp_Variant>
AV-unprocessed.smi:102-7

> <Gold.Version>
5.8.1

> <Gold.Id.Protein>
6NUR|6NUR_protein|mol2

> <Gold.PLP.Fitness>
44.3064

> <Gold.PLP.PLP>
-35.2870

> <Gold.PLP.part.hbond>
-4.1985

> <Gold.PLP.part.metal>
0.0000

> <Gold.PLP.part.buried>
-4.1723

> <Gold.PLP.part.nonpolar>
-26.9610

> <Gold.PLP.part.repulsive>
0.6894

> <Gold.PLP.ligand.clash>
0.0000

> <Gold.PLP.ligand.torsion>
0.3502

> <Gold.PLP.Chemscore.Hbond>
3.1557

> <Gold.PLP.Chemscore.CHOScore>
0.0000

> <Gold.PLP.Chemscore.Metal>
0.0000

> <Gold.Chemscore.Hbonds>
donor molecule, donor type, donor heavy atom, donor atom, acceptor molecule, acceptor atom, score
      P1  H  6934  6946       L1     3  1.00
      P1  H  7989  7998       L1    17  0.17
      P1  H  7997  8010       L1    17  1.00
      P1  H 10752 10765       L1    14  1.00

> <Gold.PLP.Chemscore.Internal.Correction>
0.2527

> <Gold.Rescore>
     Score         DG    S(hbond)    S(metal)    S(lipo)     H(rot)  DE(clash)    DE(int)     intcor
     -3.60      -9.36       2.68        0.00      45.18       4.05       1.81      11.15       ----

> <Gold.Chemscore.Fitness>
-3.6025

> <Gold.Chemscore.DG>
-9.3591

> <Gold.Chemscore.ZeroCoef>
-5.4800

> <Gold.Chemscore.Hbond>
2.6846

> <Gold.Chemscore.Metal>
0.0000

> <Gold.Chemscore.Lipo>
45.1775

> <Gold.Chemscore.Internal_Hbond>
0.0000

> <Gold.Chemscore.DEClash>
1.8103

> <Gold.Chemscore.DEInternal>
11.1512

> <Gold.Chemscore.Rot>
4.0520

> <Gold.Chemscore.Internal.Correction>
   9.000000E+99

> <Gold.Chemscore.Hbonds>
donor molecule, donor type, donor heavy atom, donor atom, acceptor molecule, acceptor atom, score
      P1  H  6934  6946       L1     3  0.65
      P1  H  7997  8010       L1    17  0.99
      P1  H 10752 10765       L1    14  0.39

> <Gold.Chemscore.Hbond.Weighted>
-8.9665

> <Gold.Chemscore.Metal.Weighted>
-0.0000

> <Gold.Chemscore.Lipo.Weighted>
-5.2858

> <Gold.Chemscore.Internal_Hbond.Weighted>
0.0000

> <Gold.Chemscore.DEClash.Weighted>
1.8103

> <Gold.Chemscore.DEInternal.Weighted>
11.1512

> <Gold.Chemscore.Rot.Weighted>
10.3732

> <Gold.Chemscore.Internal.Correction.Weighted>
   9.000000E+99

> <Gold.Protein.RotatedTorsions>
[ 6907 6896 6895 6894 ] final -111.56 input  -60.11 | X-H torsion
[ 7974 7965 7964 7962 ] final   -3.72 input  175.53 | X-H torsion
[ 8008 7997 7996 7995 ] final  105.57 input   59.86 | X-H torsion
[ 10167 10162 10161 10158 ] final    6.90 input  -65.29 | X-H torsion
[ 10718 10713 10712 10709 ] final   -7.06 input   66.30 | X-H torsion
[ 10763 10752 10751 10750 ] final  175.51 input  -60.55 | X-H torsion
[ 11005 11000 10999 10996 ] final   61.62 input  -57.11 | X-H torsion

> <Gold.Protein.ActiveResidues>
 VAL166  LYS551  ARG553  GLY616  TRP617  ASP618  TYR619  PRO620  LYS621  CYS622 
 ASP623  PHE694  ASN695  SER759  ASP760  ASP761  ALA762  ILE779  LEU786  VAL792 
 PHE793  MET794  SER795  GLU796  ALA797  LYS798  CYS799  TRP800  GLU811  SER814 

> <Gold.Protein.RotatedAtoms>
  150.7698  133.9218  159.3400 H   0  0  0  0  0  0  0  0  0  0  0  0  # atno 6907 bound_to 6896
  151.7107  135.0911  160.0276 H   0  0  0  0  0  0  0  0  0  0  0  0  # atno 6908 bound_to 6896
  152.3711  133.6382  159.6123 H   0  0  0  0  0  0  0  0  0  0  0  0  # atno 6909 bound_to 6896
  146.2385  140.1764  142.8332 H   0  0  0  0  0  0  0  0  0  0  0  0  # atno 7974 bound_to 7965
  156.1670  140.3128  155.8906 H   0  0  0  0  0  0  0  0  0  0  0  0  # atno 8008 bound_to 7997
  155.3666  140.0479  157.3063 H   0  0  0  0  0  0  0  0  0  0  0  0  # atno 8009 bound_to 7997
  154.5202  140.2195  155.9001 H   0  0  0  0  0  0  0  0  0  0  0  0  # atno 8010 bound_to 7997
  140.6402  143.7792  150.7417 H   0  0  0  0  0  0  0  0  0  0  0  0  # atno 10167 bound_to 10162
  156.7227  130.5156  149.5864 H   0  0  0  0  0  0  0  0  0  0  0  0  # atno 10718 bound_to 10713
  154.4686  135.2770  155.1659 H   0  0  0  0  0  0  0  0  0  0  0  0  # atno 10763 bound_to 10752
  154.3418  135.6168  153.5603 H   0  0  0  0  0  0  0  0  0  0  0  0  # atno 10764 bound_to 10752
  152.9862  135.5790  154.5063 H   0  0  0  0  0  0  0  0  0  0  0  0  # atno 10765 bound_to 10752
  140.0148  134.6241  155.9726 H   0  0  0  0  0  0  0  0  0  0  0  0  # atno 11005 bound_to 11000
  144.9970  140.8598  143.5305 LP  0  0  0  0  0  0  0  0  0  0  0  0  # atno 17320 bound_to 7965
  145.1778  139.2368  143.5308 LP  0  0  0  0  0  0  0  0  0  0  0  0  # atno 17321 bound_to 7965
  140.1422  143.4431  152.2186 LP  0  0  0  0  0  0  0  0  0  0  0  0  # atno 17342 bound_to 10162
  139.5611  144.7406  151.4151 LP  0  0  0  0  0  0  0  0  0  0  0  0  # atno 17343 bound_to 10162
  156.1583  130.6357  151.0686 LP  0  0  0  0  0  0  0  0  0  0  0  0  # atno 17370 bound_to 10713
  157.6891  131.0815  150.7159 LP  0  0  0  0  0  0  0  0  0  0  0  0  # atno 17371 bound_to 10713
  141.1735  133.6538  156.4742 LP  0  0  0  0  0  0  0  0  0  0  0  0  # atno 17394 bound_to 11000
  140.4490  134.6946  157.5030 LP  0  0  0  0  0  0  0  0  0  0  0  0  # atno 17395 bound_to 11000

$$$$
