AV-unprocessed.smi:922|AV-procd|sdf|4176|dock6
  -GOLD-   22720 2 83D 1   1.00000     0.00000
 Structure written by MMmdl.
 33 34  0  0  0  0  0  0  0  0  1 V2000
  153.7067  141.4157  160.0905 C   0  0  0  0  0  0  0  0  0  0  0  0
  152.7586  141.9664  159.0207 C   0  0  1  0  0  0  0  0  0  0  0  0
  151.6401  140.9654  158.6760 C   0  0  0  0  0  0  0  0  0  0  0  0
  150.6922  141.5627  157.7445 N   0  0  0  0  0  0  0  0  0  0  0  0
  150.2987  141.0045  156.5272 C   0  0  0  0  0  0  0  0  0  0  0  0
  150.1153  141.8647  155.3626 C   0  0  0  0  0  0  0  0  0  0  0  0
  149.7525  141.4237  154.2076 N   0  0  0  0  0  0  0  0  0  0  0  0
  149.5256  140.0786  154.0670 N   0  0  0  0  0  0  0  0  0  0  0  0
  149.6492  139.1354  155.0291 C   0  0  0  0  0  0  0  0  0  0  0  0
  149.4242  137.9497  154.7934 O   0  0  0  0  0  0  0  0  0  0  0  0
  150.0683  139.6699  156.3336 C   0  0  0  0  0  0  0  0  0  0  0  0
  150.3076  138.5054  157.5933 Cl  0  0  0  0  0  0  0  0  0  0  0  0
  150.1165  142.7818  158.3017 C   0  0  0  0  0  0  0  0  0  0  0  0
  151.2196  143.8025  158.6642 C   0  0  0  0  0  0  0  0  0  0  0  0
  151.8985  144.3917  157.4092 C   0  0  0  0  0  0  0  0  0  0  0  0
  150.6162  144.9452  159.4954 C   0  0  0  0  0  0  0  0  0  0  0  0
  152.1780  143.1714  159.5218 O   0  0  0  0  0  0  0  0  0  0  0  0
  149.2411  139.8015  153.1383 H   0  0  0  0  0  0  0  0  0  0  0  0
  154.1894  140.4987  159.7516 H   0  0  0  0  0  0  0  0  0  0  0  0
  153.1726  141.1920  161.0144 H   0  0  0  0  0  0  0  0  0  0  0  0
  154.4903  142.1365  160.3244 H   0  0  0  0  0  0  0  0  0  0  0  0
  153.3501  142.1897  158.1337 H   0  0  0  0  0  0  0  0  0  0  0  0
  152.0556  140.0437  158.2690 H   0  0  0  0  0  0  0  0  0  0  0  0
  151.1021  140.6819  159.5815 H   0  0  0  0  0  0  0  0  0  0  0  0
  150.3012  142.9262  155.5270 H   0  0  0  0  0  0  0  0  0  0  0  0
  149.4157  143.2345  157.5994 H   0  0  0  0  0  0  0  0  0  0  0  0
  149.5408  142.5149  159.1889 H   0  0  0  0  0  0  0  0  0  0  0  0
  151.1870  144.9665  156.8159 H   0  0  0  0  0  0  0  0  0  0  0  0
  152.3059  143.6228  156.7537 H   0  0  0  0  0  0  0  0  0  0  0  0
  152.7158  145.0597  157.6822 H   0  0  0  0  0  0  0  0  0  0  0  0
  149.8534  145.4854  158.9335 H   0  0  0  0  0  0  0  0  0  0  0  0
  151.3808  145.6641  159.7922 H   0  0  0  0  0  0  0  0  0  0  0  0
  150.1509  144.5678  160.4066 H   0  0  0  0  0  0  0  0  0  0  0  0
  1  2  1  0  0  0  0
  1 19  1  0  0  0  0
  1 20  1  0  0  0  0
  1 21  1  0  0  0  0
  2 17  1  0  0  0  0
  2  3  1  0  0  0  0
  2 22  1  0  0  0  0
  3  4  1  0  0  0  0
  3 23  1  0  0  0  0
  3 24  1  0  0  0  0
  4  5  1  0  0  0  0
  4 13  1  0  0  0  0
  5 11  2  0  0  0  0
  5  6  1  0  0  0  0
  6  7  2  0  0  0  0
  6 25  1  0  0  0  0
  7  8  1  0  0  0  0
  8 18  1  0  0  0  0
  8  9  1  0  0  0  0
  9 10  2  0  0  0  0
  9 11  1  0  0  0  0
 11 12  1  0  0  0  0
 13 14  1  0  0  0  0
 13 26  1  0  0  0  0
 13 27  1  0  0  0  0
 14 15  1  0  0  0  0
 14 16  1  0  0  0  0
 14 17  1  0  0  0  0
 15 28  1  0  0  0  0
 15 29  1  0  0  0  0
 15 30  1  0  0  0  0
 16 31  1  0  0  0  0
 16 32  1  0  0  0  0
 16 33  1  0  0  0  0
M  END
> <s_m_source_file>
AV-unprocessed.smi

> <i_m_source_file_index>
922

> <i_lp_mmshare_version>
43012

> <i_f3d_flags>
0

> <s_epik_input>
W0NIM11bQ0BASF0oTzEpW0NIMl1OKFtDSDJdQzEoW0NIM10pW0NIM10pYzJbY0hdbltuSF1jKD1PKWMyQ2w=

> <s_epik_cmdline>
J2VwaWtfcHl0aG9uJywgJy1waCcsICc3LjAnLCAnLXRuJywgJzgnLCAnLW1hJywgJzIwMCcsICctbWV0YWxfYmluZGluZycsICctaW1hZScsICc8aW5maWxlLm1hZT4nLCAnLW9tYWUnLCAnPG91dGZpbGUubWFlPic=

> <r_lp_tautomer_probability>
0.986175

> <r_epik_Ionization_Penalty>
0.00909695

> <r_epik_Ionization_Penalty_Charging>
0.00909694

> <r_epik_Ionization_Penalty_Neutral>
4.87729e-09

> <r_epik_State_Penalty>
1.54226

> <r_epik_Charging_Adjusted_Penalty>
1.55136

> <i_epik_Tot_Q>
0

> <i_epik_Tot_abs_Q>
0

> <r_epik_Metal_State_Penalty>
3.93934

> <b_epik_Metal_Only>
0

> <s_lp_Force_Field>
OPLS_2005

> <r_lp_Energy>
35.5656

> <b_lp_Chiralities_Consistent>
1

> <s_lp_Variant>
AV-unprocessed.smi:922-4

> <Gold.Version>
5.8.1

> <Gold.Id.Protein>
6NUR|6NUR_protein|mol2

> <Gold.PLP.Fitness>
37.7307

> <Gold.PLP.PLP>
-30.8312

> <Gold.PLP.part.hbond>
-3.0000

> <Gold.PLP.part.metal>
0.0000

> <Gold.PLP.part.buried>
-2.7526

> <Gold.PLP.part.nonpolar>
-23.7805

> <Gold.PLP.part.repulsive>
0.5222

> <Gold.PLP.ligand.clash>
0.0025

> <Gold.PLP.ligand.torsion>
0.6700

> <Gold.PLP.Chemscore.Hbond>
1.4358

> <Gold.PLP.Chemscore.CHOScore>
1.0000

> <Gold.PLP.Chemscore.Metal>
0.0000

> <Gold.Chemscore.Hbonds>
donor molecule, donor type, donor heavy atom, donor atom, acceptor molecule, acceptor atom, score
      L1  H     8    18       P1  7957  0.90
      P1  H  7989  7998       L1     7  0.04
      P1  H  8011  8017       L1     7  0.49
      L1  C     6    25       P1  8028  1.00

> <Gold.PLP.Chemscore.Internal.Correction>
0.9344

> <Gold.Rescore>
     Score         DG    S(hbond)    S(metal)    S(lipo)     H(rot)  DE(clash)    DE(int)     intcor
     17.67     -19.84       1.36        0.00      83.83       0.00       0.46       1.71       ----

> <Gold.Chemscore.Fitness>
17.6688

> <Gold.Chemscore.DG>
-19.8369

> <Gold.Chemscore.ZeroCoef>
-5.4800

> <Gold.Chemscore.Hbond>
1.3620

> <Gold.Chemscore.Metal>
0.0000

> <Gold.Chemscore.Lipo>
83.8269

> <Gold.Chemscore.Internal_Hbond>
0.0000

> <Gold.Chemscore.DEClash>
0.4628

> <Gold.Chemscore.DEInternal>
1.7053

> <Gold.Chemscore.Rot>
0.0000

> <Gold.Chemscore.Internal.Correction>
   9.000000E+99

> <Gold.Chemscore.Hbonds>
donor molecule, donor type, donor heavy atom, donor atom, acceptor molecule, acceptor atom, score
      L1  H     8    18       P1  7957  0.82
      P1  H  8011  8017       L1     7  0.40

> <Gold.Chemscore.Hbond.Weighted>
-4.5492

> <Gold.Chemscore.Metal.Weighted>
-0.0000

> <Gold.Chemscore.Lipo.Weighted>
-9.8077

> <Gold.Chemscore.Internal_Hbond.Weighted>
0.0000

> <Gold.Chemscore.DEClash.Weighted>
0.4628

> <Gold.Chemscore.DEInternal.Weighted>
1.7053

> <Gold.Chemscore.Rot.Weighted>
0.0000

> <Gold.Chemscore.Internal.Correction.Weighted>
   9.000000E+99

> <Gold.Protein.RotatedTorsions>
[ 6907 6896 6895 6894 ] final -168.08 input  -60.11 | X-H torsion
[ 7974 7965 7964 7962 ] final  157.33 input  175.53 | X-H torsion
[ 8008 7997 7996 7995 ] final  -18.71 input   59.86 | X-H torsion
[ 10167 10162 10161 10158 ] final  138.72 input  -65.29 | X-H torsion
[ 10718 10713 10712 10709 ] final -115.58 input   66.30 | X-H torsion
[ 10763 10752 10751 10750 ] final  -81.11 input  -60.55 | X-H torsion
[ 11005 11000 10999 10996 ] final  138.09 input  -57.11 | X-H torsion

> <Gold.Protein.ActiveResidues>
 VAL166  LYS551  ARG553  GLY616  TRP617  ASP618  TYR619  PRO620  LYS621  CYS622 
 ASP623  PHE694  ASN695  SER759  ASP760  ASP761  ALA762  ILE779  LEU786  VAL792 
 PHE793  MET794  SER795  GLU796  ALA797  LYS798  CYS799  TRP800  GLU811  SER814 

> <Gold.Protein.RotatedAtoms>
  151.4699  133.3571  159.2821 H   0  0  0  0  0  0  0  0  0  0  0  0  # atno 6907 bound_to 6896
  150.8968  134.8379  159.7343 H   0  0  0  0  0  0  0  0  0  0  0  0  # atno 6908 bound_to 6896
  152.4856  134.4615  159.9658 H   0  0  0  0  0  0  0  0  0  0  0  0  # atno 6909 bound_to 6896
  144.7910  139.7325  143.6221 H   0  0  0  0  0  0  0  0  0  0  0  0  # atno 7974 bound_to 7965
  154.4887  140.2108  155.9597 H   0  0  0  0  0  0  0  0  0  0  0  0  # atno 8008 bound_to 7997
  156.1274  140.3203  155.8266 H   0  0  0  0  0  0  0  0  0  0  0  0  # atno 8009 bound_to 7997
  155.4359  140.0507  157.3005 H   0  0  0  0  0  0  0  0  0  0  0  0  # atno 8010 bound_to 7997
  139.5102  144.6337  151.5752 H   0  0  0  0  0  0  0  0  0  0  0  0  # atno 10167 bound_to 10162
  156.0905  130.6089  150.8925 H   0  0  0  0  0  0  0  0  0  0  0  0  # atno 10718 bound_to 10713
  154.5596  135.5637  153.6995 H   0  0  0  0  0  0  0  0  0  0  0  0  # atno 10763 bound_to 10752
  153.0014  135.6270  154.2263 H   0  0  0  0  0  0  0  0  0  0  0  0  # atno 10764 bound_to 10752
  154.2201  135.2870  155.2908 H   0  0  0  0  0  0  0  0  0  0  0  0  # atno 10765 bound_to 10752
  140.0159  134.9418  157.0376 H   0  0  0  0  0  0  0  0  0  0  0  0  # atno 11005 bound_to 11000
  146.2161  139.5552  142.9649 LP  0  0  0  0  0  0  0  0  0  0  0  0  # atno 17320 bound_to 7965
  145.5795  141.0384  143.2130 LP  0  0  0  0  0  0  0  0  0  0  0  0  # atno 17321 bound_to 7965
  140.6079  143.9491  150.6431 LP  0  0  0  0  0  0  0  0  0  0  0  0  # atno 17342 bound_to 10162
  140.2724  143.3447  152.1226 LP  0  0  0  0  0  0  0  0  0  0  0  0  # atno 17343 bound_to 10162
  157.6053  131.0939  150.8889 LP  0  0  0  0  0  0  0  0  0  0  0  0  # atno 17370 bound_to 10713
  156.9039  130.5256  149.5282 LP  0  0  0  0  0  0  0  0  0  0  0  0  # atno 17371 bound_to 10713
  140.4471  134.1621  155.7178 LP  0  0  0  0  0  0  0  0  0  0  0  0  # atno 17394 bound_to 11000
  141.1742  133.8547  157.1473 LP  0  0  0  0  0  0  0  0  0  0  0  0  # atno 17395 bound_to 11000

$$$$
