AV-unprocessed.smi:282|AV-procd|sdf|2121|dock1
  -GOLD-   2262021423D 1   1.00000     0.00000
 Structure written by MMmdl.
 65 69  0  0  0  0  0  0  0  0  2 V2000
  141.7570  135.7037  153.5660 C   0  0  0  0  0  0  0  0  0  0  0  0
  143.2717  135.6705  153.8103 C   0  0  0  0  0  0  0  0  0  0  0  0
  144.1221  135.7593  152.5194 C   0  0  2  0  0  0  0  0  0  0  0  0
  143.6981  134.7447  151.4370 C   0  0  0  0  0  0  0  0  0  0  0  0
  144.0816  133.3549  151.8030 N   0  3  1  0  0  0  0  0  0  0  0  0
  143.6037  132.3322  150.8363 C   0  0  0  0  0  0  0  0  0  0  0  0
  144.4450  132.3155  149.5457 C   0  0  0  0  0  0  0  0  0  0  0  0
  145.9359  132.1357  149.8625 C   0  0  0  0  0  0  0  0  0  0  0  0
  146.4042  133.2026  150.8620 C   0  0  0  0  0  0  0  0  0  0  0  0
  145.5280  133.1961  152.1344 C   0  0  1  0  0  0  0  0  0  0  0  0
  145.9865  134.2436  153.1684 C   0  0  0  0  0  0  0  0  0  0  0  0
  145.5504  135.5893  152.7975 N   0  0  0  0  0  0  0  0  0  0  0  0
  146.1954  136.6455  153.3554 C   0  0  0  0  0  0  0  0  0  0  0  0
  145.7752  137.9097  153.0831 N   0  0  0  0  0  0  0  0  0  0  0  0
  146.4055  138.9597  153.6175 C   0  0  0  0  0  0  0  0  0  0  0  0
  147.4540  138.9718  154.4422 N   0  0  0  0  0  0  0  0  0  0  0  0
  147.8727  137.7059  154.7295 C   0  0  0  0  0  0  0  0  0  0  0  0
  147.3092  136.4984  154.2293 C   0  0  0  0  0  0  0  0  0  0  0  0
  147.9982  135.4068  154.7444 N   0  0  0  0  0  0  0  0  0  0  0  0
  148.9201  135.9389  155.4990 C   0  0  0  0  0  0  0  0  0  0  0  0
  148.9055  137.3140  155.5642 N   0  0  0  0  0  0  0  0  0  0  0  0
  149.8091  138.1639  156.3244 C   0  0  0  0  0  0  0  0  0  0  0  0
  150.8414  138.9815  155.4824 C   0  0  0  0  0  0  0  0  0  0  0  0
  151.7105  138.0405  154.6010 C   0  0  0  0  0  0  0  0  0  0  0  0
  152.1255  136.8627  155.2649 O   0  0  0  0  0  0  0  0  0  0  0  0
  150.1811  140.0697  154.5961 C   0  0  0  0  0  0  0  0  0  0  0  0
  149.5665  141.2139  155.4213 C   0  0  0  0  0  0  0  0  0  0  0  0
  150.5643  141.8076  156.2417 O   0  0  0  0  0  0  0  0  0  0  0  0
  151.1172  140.8990  157.1850 C   0  0  0  0  0  0  0  0  0  0  0  0
  151.7941  139.7240  156.4535 C   0  0  0  0  0  0  0  0  0  0  0  0
  141.2173  135.7374  154.5126 H   0  0  0  0  0  0  0  0  0  0  0  0
  141.4112  134.8210  153.0291 H   0  0  0  0  0  0  0  0  0  0  0  0
  141.4699  136.5844  152.9909 H   0  0  0  0  0  0  0  0  0  0  0  0
  143.5183  136.5120  154.4589 H   0  0  0  0  0  0  0  0  0  0  0  0
  143.5249  134.7735  154.3759 H   0  0  0  0  0  0  0  0  0  0  0  0
  143.9590  136.7512  152.1007 H   0  0  0  0  0  0  0  0  0  0  0  0
  142.6256  134.7975  151.2537 H   0  0  0  0  0  0  0  0  0  0  0  0
  144.1736  135.0178  150.4949 H   0  0  0  0  0  0  0  0  0  0  0  0
  143.6597  131.3546  151.3171 H   0  0  0  0  0  0  0  0  0  0  0  0
  142.5509  132.4986  150.6053 H   0  0  0  0  0  0  0  0  0  0  0  0
  144.1059  131.5095  148.8944 H   0  0  0  0  0  0  0  0  0  0  0  0
  144.2962  133.2397  148.9868 H   0  0  0  0  0  0  0  0  0  0  0  0
  146.1041  131.1425  150.2808 H   0  0  0  0  0  0  0  0  0  0  0  0
  146.5254  132.1921  148.9471 H   0  0  0  0  0  0  0  0  0  0  0  0
  147.4456  133.0180  151.1276 H   0  0  0  0  0  0  0  0  0  0  0  0
  146.3821  134.1848  150.3887 H   0  0  0  0  0  0  0  0  0  0  0  0
  145.6435  132.2156  152.5991 H   0  0  0  0  0  0  0  0  0  0  0  0
  145.5751  133.9986  154.1482 H   0  0  0  0  0  0  0  0  0  0  0  0
  147.0724  134.2075  153.2690 H   0  0  0  0  0  0  0  0  0  0  0  0
  146.0123  139.9287  153.3477 H   0  0  0  0  0  0  0  0  0  0  0  0
  149.6355  135.3374  156.0402 H   0  0  0  0  0  0  0  0  0  0  0  0
  149.1882  138.8204  156.9315 H   0  0  0  0  0  0  0  0  0  0  0  0
  150.3392  137.5315  157.0376 H   0  0  0  0  0  0  0  0  0  0  0  0
  151.1542  137.7202  153.7194 H   0  0  0  0  0  0  0  0  0  0  0  0
  152.5921  138.5671  154.2340 H   0  0  0  0  0  0  0  0  0  0  0  0
  152.3472  137.0832  156.1567 H   0  0  0  0  0  0  0  0  0  0  0  0
  150.9349  140.4982  153.9339 H   0  0  0  0  0  0  0  0  0  0  0  0
  149.4264  139.6420  153.9375 H   0  0  0  0  0  0  0  0  0  0  0  0
  149.1680  141.9781  154.7539 H   0  0  0  0  0  0  0  0  0  0  0  0
  148.7321  140.8667  156.0315 H   0  0  0  0  0  0  0  0  0  0  0  0
  151.8540  141.4320  157.7863 H   0  0  0  0  0  0  0  0  0  0  0  0
  150.3463  140.5572  157.8758 H   0  0  0  0  0  0  0  0  0  0  0  0
  152.2159  139.0282  157.1799 H   0  0  0  0  0  0  0  0  0  0  0  0
  152.6428  140.1276  155.8996 H   0  0  0  0  0  0  0  0  0  0  0  0
  143.5845  133.1709  152.6626 H   0  0  0  0  0  0  0  0  0  0  0  0
  1  2  1  0  0  0  0
  1 31  1  0  0  0  0
  1 32  1  0  0  0  0
  1 33  1  0  0  0  0
  2  3  1  0  0  0  0
  2 34  1  0  0  0  0
  2 35  1  0  0  0  0
  3 12  1  0  0  0  0
  3  4  1  0  0  0  0
  3 36  1  0  0  0  0
  4  5  1  0  0  0  0
  4 37  1  0  0  0  0
  4 38  1  0  0  0  0
  5 10  1  0  0  0  0
  5  6  1  0  0  0  0
  5 65  1  0  0  0  0
  6  7  1  0  0  0  0
  6 39  1  0  0  0  0
  6 40  1  0  0  0  0
  7  8  1  0  0  0  0
  7 41  1  0  0  0  0
  7 42  1  0  0  0  0
  8  9  1  0  0  0  0
  8 43  1  0  0  0  0
  8 44  1  0  0  0  0
  9 10  1  0  0  0  0
  9 45  1  0  0  0  0
  9 46  1  0  0  0  0
 10 11  1  0  0  0  0
 10 47  1  0  0  0  0
 11 12  1  0  0  0  0
 11 48  1  0  0  0  0
 11 49  1  0  0  0  0
 12 13  1  0  0  0  0
 13 18  1  0  0  0  0
 13 14  2  0  0  0  0
 14 15  1  0  0  0  0
 15 16  2  0  0  0  0
 15 50  1  0  0  0  0
 16 17  1  0  0  0  0
 17 21  1  0  0  0  0
 17 18  2  0  0  0  0
 18 19  1  0  0  0  0
 19 20  2  0  0  0  0
 20 21  1  0  0  0  0
 20 51  1  0  0  0  0
 21 22  1  0  0  0  0
 22 23  1  0  0  0  0
 22 52  1  0  0  0  0
 22 53  1  0  0  0  0
 23 30  1  0  0  0  0
 23 24  1  0  0  0  0
 23 26  1  0  0  0  0
 24 25  1  0  0  0  0
 24 54  1  0  0  0  0
 24 55  1  0  0  0  0
 25 56  1  0  0  0  0
 26 27  1  0  0  0  0
 26 57  1  0  0  0  0
 26 58  1  0  0  0  0
 27 28  1  0  0  0  0
 27 59  1  0  0  0  0
 27 60  1  0  0  0  0
 28 29  1  0  0  0  0
 29 30  1  0  0  0  0
 29 61  1  0  0  0  0
 29 62  1  0  0  0  0
 30 63  1  0  0  0  0
 30 64  1  0  0  0  0
M  CHG  1   5   1
M  END
> <s_m_source_file>
AV-unprocessed.smi

> <i_m_source_file_index>
282

> <i_lp_mmshare_version>
43012

> <i_f3d_flags>
0

> <s_epik_input>
W0NIMl0xW0NIMl1bQ0gyXVtDSDJdW0NAQEhdKE4xMilbQ0gyXU4oW0NAQEhdKFtDSDJdMilbQ0gyXVtDSDNdKWMobltjSF1uMyljKGMzNCluW2NIXW40W0NIMl1DNShbQ0gyXVtPSF0pW0NIMl1bQ0gyXU9bQ0gyXVtDSDJdNQ==

> <s_epik_cmdline>
J2VwaWtfcHl0aG9uJywgJy1waCcsICc3LjAnLCAnLXRuJywgJzgnLCAnLW1hJywgJzIwMCcsICctbWV0YWxfYmluZGluZycsICctaW1hZScsICc8aW5maWxlLm1hZT4nLCAnLW9tYWUnLCAnPG91dGZpbGUubWFlPic=

> <r_lp_tautomer_probability>
1

> <r_epik_Ionization_Penalty>
0.00308583

> <r_epik_Ionization_Penalty_Charging>
0.00300384

> <r_epik_Ionization_Penalty_Neutral>
8.19894e-05

> <r_epik_State_Penalty>
-0

> <r_epik_Charging_Adjusted_Penalty>
0.00300384

> <i_epik_Tot_Q>
1

> <i_epik_Tot_abs_Q>
1

> <r_epik_Metal_State_Penalty>
-0

> <b_epik_Metal_Only>
0

> <s_lp_Force_Field>
OPLS_2005

> <r_lp_Energy>
61.1987

> <b_lp_Chiralities_Consistent>
1

> <s_lp_Variant>
AV-unprocessed.smi:282-5

> <Gold.Version>
5.8.1

> <Gold.Id.Protein>
6NUR|6NUR_protein|mol2

> <Gold.PLP.Fitness>
45.5775

> <Gold.PLP.PLP>
-40.6523

> <Gold.PLP.part.hbond>
-0.8931

> <Gold.PLP.part.metal>
0.0000

> <Gold.PLP.part.buried>
-3.6022

> <Gold.PLP.part.nonpolar>
-37.7952

> <Gold.PLP.part.repulsive>
1.0875

> <Gold.PLP.ligand.clash>
0.0000

> <Gold.PLP.ligand.torsion>
0.5360

> <Gold.PLP.Chemscore.Hbond>
0.9280

> <Gold.PLP.Chemscore.CHOScore>
0.9674

> <Gold.PLP.Chemscore.Metal>
0.0000

> <Gold.Chemscore.Hbonds>
donor molecule, donor type, donor heavy atom, donor atom, acceptor molecule, acceptor atom, score
      P1  H 10752 10765       L1    25  0.99
      L1  C    15    50       P1 10175  0.92

> <Gold.PLP.Chemscore.Internal.Correction>
0.3108

> <Gold.Rescore>
     Score         DG    S(hbond)    S(metal)    S(lipo)     H(rot)  DE(clash)    DE(int)     intcor
     13.11     -16.38       1.67        0.00      93.63       2.20       0.10       3.17       ----

> <Gold.Chemscore.Fitness>
13.1056

> <Gold.Chemscore.DG>
-16.3804

> <Gold.Chemscore.ZeroCoef>
-5.4800

> <Gold.Chemscore.Hbond>
1.6731

> <Gold.Chemscore.Metal>
0.0000

> <Gold.Chemscore.Lipo>
93.6329

> <Gold.Chemscore.Internal_Hbond>
0.0000

> <Gold.Chemscore.DEClash>
0.1007

> <Gold.Chemscore.DEInternal>
3.1740

> <Gold.Chemscore.Rot>
2.2042

> <Gold.Chemscore.Internal.Correction>
   9.000000E+99

> <Gold.Chemscore.Hbonds>
donor molecule, donor type, donor heavy atom, donor atom, acceptor molecule, acceptor atom, score
      P1  H 10752 10765       L1    25  0.79

> <Gold.Chemscore.Hbond.Weighted>
-5.5882

> <Gold.Chemscore.Metal.Weighted>
-0.0000

> <Gold.Chemscore.Lipo.Weighted>
-10.9550

> <Gold.Chemscore.Internal_Hbond.Weighted>
0.0000

> <Gold.Chemscore.DEClash.Weighted>
0.1007

> <Gold.Chemscore.DEInternal.Weighted>
3.1740

> <Gold.Chemscore.Rot.Weighted>
5.6429

> <Gold.Chemscore.Internal.Correction.Weighted>
   9.000000E+99

> <Gold.Protein.RotatedTorsions>
[ 6907 6896 6895 6894 ] final  -49.11 input  -60.11 | X-H torsion
[ 7974 7965 7964 7962 ] final -108.38 input  175.53 | X-H torsion
[ 8008 7997 7996 7995 ] final  -41.81 input   59.86 | X-H torsion
[ 10167 10162 10161 10158 ] final    9.25 input  -65.29 | X-H torsion
[ 10718 10713 10712 10709 ] final -101.28 input   66.30 | X-H torsion
[ 10763 10752 10751 10750 ] final -174.59 input  -60.55 | X-H torsion
[ 11005 11000 10999 10996 ] final   22.01 input  -57.11 | X-H torsion

> <Gold.Protein.ActiveResidues>
 VAL166  LYS551  ARG553  GLY616  TRP617  ASP618  TYR619  PRO620  LYS621  CYS622 
 ASP623  PHE694  ASN695  SER759  ASP760  ASP761  ALA762  ILE779  LEU786  VAL792 
 PHE793  MET794  SER795  GLU796  ALA797  LYS798  CYS799  TRP800  GLU811  SER814 

> <Gold.Protein.RotatedAtoms>
  150.8838  134.8233  159.7243 H   0  0  0  0  0  0  0  0  0  0  0  0  # atno 6907 bound_to 6896
  152.4794  134.4755  159.9659 H   0  0  0  0  0  0  0  0  0  0  0  0  # atno 6908 bound_to 6896
  151.4826  133.3504  159.2876 H   0  0  0  0  0  0  0  0  0  0  0  0  # atno 6909 bound_to 6896
  145.1936  140.9026  143.3410 H   0  0  0  0  0  0  0  0  0  0  0  0  # atno 7974 bound_to 7965
  154.4002  140.1490  156.3252 H   0  0  0  0  0  0  0  0  0  0  0  0  # atno 8008 bound_to 7997
  155.8494  140.3458  155.5662 H   0  0  0  0  0  0  0  0  0  0  0  0  # atno 8009 bound_to 7997
  155.8001  140.0869  157.1952 H   0  0  0  0  0  0  0  0  0  0  0  0  # atno 8010 bound_to 7997
  140.6266  143.8087  150.7241 H   0  0  0  0  0  0  0  0  0  0  0  0  # atno 10167 bound_to 10162
  156.0190  130.5366  150.6941 H   0  0  0  0  0  0  0  0  0  0  0  0  # atno 10718 bound_to 10713
  154.5944  135.2848  155.0601 H   0  0  0  0  0  0  0  0  0  0  0  0  # atno 10763 bound_to 10752
  154.1889  135.6444  153.5058 H   0  0  0  0  0  0  0  0  0  0  0  0  # atno 10764 bound_to 10752
  153.0133  135.5441  154.6641 H   0  0  0  0  0  0  0  0  0  0  0  0  # atno 10765 bound_to 10752
  140.3853  134.1877  155.7663 H   0  0  0  0  0  0  0  0  0  0  0  0  # atno 11005 bound_to 11000
  145.0016  139.3593  143.6164 LP  0  0  0  0  0  0  0  0  0  0  0  0  # atno 17320 bound_to 7965
  146.3431  139.9242  142.8762 LP  0  0  0  0  0  0  0  0  0  0  0  0  # atno 17321 bound_to 7965
  140.1689  143.4212  152.2015 LP  0  0  0  0  0  0  0  0  0  0  0  0  # atno 17342 bound_to 10162
  139.5486  144.7319  151.4506 LP  0  0  0  0  0  0  0  0  0  0  0  0  # atno 17343 bound_to 10162
  157.4616  131.0884  151.0740 LP  0  0  0  0  0  0  0  0  0  0  0  0  # atno 17370 bound_to 10713
  157.1226  130.6068  149.5509 LP  0  0  0  0  0  0  0  0  0  0  0  0  # atno 17371 bound_to 10713
  141.1909  133.8206  157.0899 LP  0  0  0  0  0  0  0  0  0  0  0  0  # atno 17394 bound_to 11000
  140.0447  134.9836  157.1027 LP  0  0  0  0  0  0  0  0  0  0  0  0  # atno 17395 bound_to 11000

$$$$
