AV-unprocessed.smi:2093|AV-procd|sdf|8549|dock4
  -GOLD-   2272011273D 1   1.00000     0.00000
 Structure written by MMmdl.
 30 31  0  0  0  0  0  0  0  0  2 V2000
  153.9918  141.1388  161.3202 C   0  0  0  0  0  0  0  0  0  0  0  0
  153.7775  141.6976  159.9057 C   0  0  1  0  0  0  0  0  0  0  0  0
  152.7934  140.8620  159.2175 N   0  0  0  0  0  0  0  0  0  0  0  0
  152.9940  139.6378  158.7074 C   0  0  0  0  0  0  0  0  0  0  0  0
  154.1028  139.1050  158.7936 O   0  0  0  0  0  0  0  0  0  0  0  0
  151.8962  139.1092  158.1201 N   0  5  0  0  0  0  0  0  0  0  0  0
  151.9340  138.7487  156.8270 C   0  0  0  0  0  0  0  0  0  0  0  0
  152.9152  139.1158  155.9945 N   0  0  0  0  0  0  0  0  0  0  0  0
  152.7552  138.6253  154.6973 C   0  0  0  0  0  0  0  0  0  0  0  0
  151.6316  137.8580  154.5409 C   0  0  0  0  0  0  0  0  0  0  0  0
  150.7348  137.7287  156.0271 S   0  0  0  0  0  0  0  0  0  0  0  0
  153.3120  143.1685  159.9382 C   0  0  2  0  0  0  0  0  0  0  0  0
  152.0790  143.4433  160.7982 C   0  0  0  0  0  0  0  0  0  0  0  0
  151.5960  144.7697  160.2499 C   0  0  0  0  0  0  0  0  0  0  0  0
  152.0306  144.7251  158.7830 C   0  0  0  0  0  0  0  0  0  0  0  0
  152.8813  143.5896  158.6506 O   0  0  0  0  0  0  0  0  0  0  0  0
  154.7481  141.7094  161.8596 H   0  0  0  0  0  0  0  0  0  0  0  0
  154.3282  140.1021  161.2853 H   0  0  0  0  0  0  0  0  0  0  0  0
  153.0712  141.1710  161.9039 H   0  0  0  0  0  0  0  0  0  0  0  0
  154.7356  141.6456  159.3861 H   0  0  0  0  0  0  0  0  0  0  0  0
  151.8669  141.2497  159.1170 H   0  0  0  0  0  0  0  0  0  0  0  0
  153.4918  138.8717  153.9473 H   0  0  0  0  0  0  0  0  0  0  0  0
  151.2785  137.3633  153.6488 H   0  0  0  0  0  0  0  0  0  0  0  0
  154.1302  143.8169  160.2579 H   0  0  0  0  0  0  0  0  0  0  0  0
  151.3219  142.6754  160.6329 H   0  0  0  0  0  0  0  0  0  0  0  0
  152.3002  143.4807  161.8653 H   0  0  0  0  0  0  0  0  0  0  0  0
  150.5206  144.9053  160.3692 H   0  0  0  0  0  0  0  0  0  0  0  0
  152.0996  145.5899  160.7630 H   0  0  0  0  0  0  0  0  0  0  0  0
  151.1776  144.6174  158.1124 H   0  0  0  0  0  0  0  0  0  0  0  0
  152.5664  145.6334  158.5061 H   0  0  0  0  0  0  0  0  0  0  0  0
  1  2  1  0  0  0  0
  1 17  1  0  0  0  0
  1 18  1  0  0  0  0
  1 19  1  0  0  0  0
  2  3  1  0  0  0  0
  2 12  1  0  0  0  0
  2 20  1  0  0  0  0
  3  4  1  0  0  0  0
  3 21  1  0  0  0  0
  4  5  2  0  0  0  0
  4  6  1  0  0  0  0
  6  7  1  0  0  0  0
  7 11  1  0  0  0  0
  7  8  2  0  0  0  0
  8  9  1  0  0  0  0
  9 10  2  0  0  0  0
  9 22  1  0  0  0  0
 10 11  1  0  0  0  0
 10 23  1  0  0  0  0
 12 16  1  0  0  0  0
 12 13  1  0  0  0  0
 12 24  1  0  0  0  0
 13 14  1  0  0  0  0
 13 25  1  0  0  0  0
 13 26  1  0  0  0  0
 14 15  1  0  0  0  0
 14 27  1  0  0  0  0
 14 28  1  0  0  0  0
 15 16  1  0  0  0  0
 15 29  1  0  0  0  0
 15 30  1  0  0  0  0
M  CHG  1   6  -1
M  END
> <s_m_source_file>
AV-unprocessed.smi

> <i_m_source_file_index>
2093

> <i_lp_mmshare_version>
43012

> <i_f3d_flags>
0

> <s_epik_input>
TzFbQ0gyXVtDSDJdW0NIMl1bQ0BIXTFbQ0BIXShbQ0gzXSlbTkhdQyg9TylbTkhdYzJuW2NIXVtjSF1zMg==

> <s_epik_cmdline>
J2VwaWtfcHl0aG9uJywgJy1waCcsICc3LjAnLCAnLXRuJywgJzgnLCAnLW1hJywgJzIwMCcsICctbWV0YWxfYmluZGluZycsICctaW1hZScsICc8aW5maWxlLm1hZT4nLCAnLW9tYWUnLCAnPG91dGZpbGUubWFlPic=

> <r_lp_tautomer_probability>
0.999

> <r_epik_Ionization_Penalty>
8.26346

> <r_epik_Ionization_Penalty_Charging>
6.6559

> <r_epik_Ionization_Penalty_Neutral>
1.60756

> <r_epik_State_Penalty>
6.65607

> <r_epik_Charging_Adjusted_Penalty>
13.312

> <i_epik_Tot_Q>
-1

> <i_epik_Tot_abs_Q>
1

> <r_epik_Metal_State_Penalty>
2.5789

> <b_epik_Metal_Only>
1

> <s_lp_Force_Field>
OPLS_2005

> <r_lp_Energy>
13.6903

> <b_lp_Chiralities_Consistent>
1

> <s_lp_Variant>
AV-unprocessed.smi:2093-6

> <Gold.Version>
5.8.1

> <Gold.Id.Protein>
6NUR|6NUR_protein|mol2

> <Gold.PLP.Fitness>
43.1324

> <Gold.PLP.PLP>
-36.5920

> <Gold.PLP.part.hbond>
-2.0000

> <Gold.PLP.part.metal>
0.0000

> <Gold.PLP.part.buried>
-5.2591

> <Gold.PLP.part.nonpolar>
-29.2600

> <Gold.PLP.part.repulsive>
0.1075

> <Gold.PLP.ligand.clash>
0.0000

> <Gold.PLP.ligand.torsion>
0.8955

> <Gold.PLP.Chemscore.Hbond>
1.7680

> <Gold.PLP.Chemscore.CHOScore>
1.0000

> <Gold.PLP.Chemscore.Metal>
0.0000

> <Gold.Chemscore.Hbonds>
donor molecule, donor type, donor heavy atom, donor atom, acceptor molecule, acceptor atom, score
      P1  H  7997  8008       L1     5  0.60
      P1  H  7997  8009       L1     8  0.94
      L1  C    10    23       P1  7949  0.92

> <Gold.PLP.Chemscore.Internal.Correction>
0.0274

> <Gold.Rescore>
     Score         DG    S(hbond)    S(metal)    S(lipo)     H(rot)  DE(clash)    DE(int)     intcor
     16.53     -17.59       1.55        0.00      87.15       1.28       0.02       1.05       ----

> <Gold.Chemscore.Fitness>
16.5304

> <Gold.Chemscore.DG>
-17.5942

> <Gold.Chemscore.ZeroCoef>
-5.4800

> <Gold.Chemscore.Hbond>
1.5534

> <Gold.Chemscore.Metal>
0.0000

> <Gold.Chemscore.Lipo>
87.1517

> <Gold.Chemscore.Internal_Hbond>
0.0000

> <Gold.Chemscore.DEClash>
0.0155

> <Gold.Chemscore.DEInternal>
1.0483

> <Gold.Chemscore.Rot>
1.2778

> <Gold.Chemscore.Internal.Correction>
   9.000000E+99

> <Gold.Chemscore.Hbonds>
donor molecule, donor type, donor heavy atom, donor atom, acceptor molecule, acceptor atom, score
      P1  H  7997  8008       L1     5  0.38
      P1  H  7997  8009       L1     8  0.50

> <Gold.Chemscore.Hbond.Weighted>
-5.1885

> <Gold.Chemscore.Metal.Weighted>
-0.0000

> <Gold.Chemscore.Lipo.Weighted>
-10.1967

> <Gold.Chemscore.Internal_Hbond.Weighted>
0.0000

> <Gold.Chemscore.DEClash.Weighted>
0.0155

> <Gold.Chemscore.DEInternal.Weighted>
1.0483

> <Gold.Chemscore.Rot.Weighted>
3.2711

> <Gold.Chemscore.Internal.Correction.Weighted>
   9.000000E+99

> <Gold.Protein.RotatedTorsions>
[ 6907 6896 6895 6894 ] final  -56.23 input  -60.11 | X-H torsion
[ 7974 7965 7964 7962 ] final   26.16 input  175.53 | X-H torsion
[ 8008 7997 7996 7995 ] final -137.23 input   59.86 | X-H torsion
[ 10167 10162 10161 10158 ] final  -91.05 input  -65.29 | X-H torsion
[ 10718 10713 10712 10709 ] final   88.23 input   66.30 | X-H torsion
[ 10763 10752 10751 10750 ] final   -0.42 input  -60.55 | X-H torsion
[ 11005 11000 10999 10996 ] final   92.74 input  -57.11 | X-H torsion

> <Gold.Protein.ActiveResidues>
 VAL166  LYS551  ARG553  GLY616  TRP617  ASP618  TYR619  PRO620  LYS621  CYS622 
 ASP623  PHE694  ASN695  SER759  ASP760  ASP761  ALA762  ILE779  LEU786  VAL792 
 PHE793  MET794  SER795  GLU796  ALA797  LYS798  CYS799  TRP800  GLU811  SER814 

> <Gold.Protein.RotatedAtoms>
  150.8185  134.7380  159.6750 H   0  0  0  0  0  0  0  0  0  0  0  0  # atno 6907 bound_to 6896
  152.4302  134.5789  159.9952 H   0  0  0  0  0  0  0  0  0  0  0  0  # atno 6908 bound_to 6896
  151.5979  133.3322  159.3077 H   0  0  0  0  0  0  0  0  0  0  0  0  # atno 6909 bound_to 6896
  146.1852  139.7366  142.8872 H   0  0  0  0  0  0  0  0  0  0  0  0  # atno 7974 bound_to 7965
  155.4083  140.0510  157.3033 H   0  0  0  0  0  0  0  0  0  0  0  0  # atno 8008 bound_to 7997
  154.4958  140.2138  155.9410 H   0  0  0  0  0  0  0  0  0  0  0  0  # atno 8009 bound_to 7997
  156.1403  140.3155  155.8490 H   0  0  0  0  0  0  0  0  0  0  0  0  # atno 8010 bound_to 7997
  140.3487  143.2902  151.9751 H   0  0  0  0  0  0  0  0  0  0  0  0  # atno 10167 bound_to 10162
  157.6947  131.0287  150.3243 H   0  0  0  0  0  0  0  0  0  0  0  0  # atno 10718 bound_to 10713
  153.3316  135.6975  153.6943 H   0  0  0  0  0  0  0  0  0  0  0  0  # atno 10763 bound_to 10752
  153.5743  135.3510  155.2851 H   0  0  0  0  0  0  0  0  0  0  0  0  # atno 10764 bound_to 10752
  154.8619  135.4279  154.2506 H   0  0  0  0  0  0  0  0  0  0  0  0  # atno 10765 bound_to 10752
  139.8819  134.8750  156.3616 H   0  0  0  0  0  0  0  0  0  0  0  0  # atno 11005 bound_to 11000
  145.3960  141.0379  143.3097 LP  0  0  0  0  0  0  0  0  0  0  0  0  # atno 17320 bound_to 7965
  144.8384  139.5512  143.6911 LP  0  0  0  0  0  0  0  0  0  0  0  0  # atno 17321 bound_to 7965
  139.4829  144.6094  151.7461 LP  0  0  0  0  0  0  0  0  0  0  0  0  # atno 17342 bound_to 10162
  140.5239  144.0835  150.6031 LP  0  0  0  0  0  0  0  0  0  0  0  0  # atno 17343 bound_to 10162
  156.3726  130.3866  149.7163 LP  0  0  0  0  0  0  0  0  0  0  0  0  # atno 17370 bound_to 10713
  156.4573  130.7935  151.2956 LP  0  0  0  0  0  0  0  0  0  0  0  0  # atno 17371 bound_to 10713
  140.9525  133.7441  156.0291 LP  0  0  0  0  0  0  0  0  0  0  0  0  # atno 17394 bound_to 11000
  140.8088  134.3423  157.5418 LP  0  0  0  0  0  0  0  0  0  0  0  0  # atno 17395 bound_to 11000

$$$$
