AV-unprocessed.smi:2784|AV-procd|sdf|10737|dock8
  -GOLD-   2272015173D 1   1.00000     0.00000
 Structure written by MMmdl.
 31 32  0  0  0  0  0  0  0  0  1 V2000
  152.7941  142.6161  162.5693 C   0  0  0  0  0  0  0  0  0  0  0  0
  152.9993  142.2959  161.2030 O   0  0  0  0  0  0  0  0  0  0  0  0
  152.1461  143.0069  160.3162 C   0  0  1  0  0  0  0  0  0  0  0  0
  152.1647  144.5169  160.5898 C   0  0  0  0  0  0  0  0  0  0  0  0
  151.9340  145.1538  159.2241 C   0  0  0  0  0  0  0  0  0  0  0  0
  152.7164  144.2567  158.2666 C   0  0  0  0  0  0  0  0  0  0  0  0
  152.6359  142.8382  158.8593 C   0  0  2  0  0  0  0  0  0  0  0  0
  151.7189  142.0152  158.0744 N   0  0  0  0  0  0  0  0  0  0  0  0
  151.9279  140.7360  157.7295 C   0  0  0  0  0  0  0  0  0  0  0  0
  152.9589  140.1357  158.0492 O   0  0  0  0  0  0  0  0  0  0  0  0
  150.8713  140.2628  156.9674 N   0  0  0  0  0  0  0  0  0  0  0  0
  151.1145  139.4304  156.0021 C   0  0  0  0  0  0  0  0  0  0  0  0
  152.2921  138.8817  155.5006 N   0  0  0  0  0  0  0  0  0  0  0  0
  151.9686  138.0637  154.4546 C   0  0  0  0  0  0  0  0  0  0  0  0
  150.6481  138.0937  154.3011 C   0  0  0  0  0  0  0  0  0  0  0  0
  150.0983  138.9214  155.2337 O   0  0  0  0  0  0  0  0  0  0  0  0
  153.4712  142.0255  163.1863 H   0  0  0  0  0  0  0  0  0  0  0  0
  151.7736  142.3863  162.8782 H   0  0  0  0  0  0  0  0  0  0  0  0
  152.9923  143.6693  162.7706 H   0  0  0  0  0  0  0  0  0  0  0  0
  151.1206  142.6408  160.4030 H   0  0  0  0  0  0  0  0  0  0  0  0
  151.4201  144.8205  161.3259 H   0  0  0  0  0  0  0  0  0  0  0  0
  153.1448  144.8152  160.9645 H   0  0  0  0  0  0  0  0  0  0  0  0
  150.8721  145.1214  158.9766 H   0  0  0  0  0  0  0  0  0  0  0  0
  152.2570  146.1942  159.1845 H   0  0  0  0  0  0  0  0  0  0  0  0
  152.3447  144.3229  157.2433 H   0  0  0  0  0  0  0  0  0  0  0  0
  153.7586  144.5782  158.2490 H   0  0  0  0  0  0  0  0  0  0  0  0
  153.6323  142.3923  158.8321 H   0  0  0  0  0  0  0  0  0  0  0  0
  150.8601  142.4514  157.7713 H   0  0  0  0  0  0  0  0  0  0  0  0
  153.2383  139.0351  155.8194 H   0  0  0  0  0  0  0  0  0  0  0  0
  152.7401  137.5332  153.9164 H   0  0  0  0  0  0  0  0  0  0  0  0
  149.9793  137.6062  153.6072 H   0  0  0  0  0  0  0  0  0  0  0  0
  1  2  1  0  0  0  0
  1 17  1  0  0  0  0
  1 18  1  0  0  0  0
  1 19  1  0  0  0  0
  2  3  1  0  0  0  0
  3  7  1  0  0  0  0
  3  4  1  0  0  0  0
  3 20  1  0  0  0  0
  4  5  1  0  0  0  0
  4 21  1  0  0  0  0
  4 22  1  0  0  0  0
  5  6  1  0  0  0  0
  5 23  1  0  0  0  0
  5 24  1  0  0  0  0
  6  7  1  0  0  0  0
  6 25  1  0  0  0  0
  6 26  1  0  0  0  0
  7  8  1  0  0  0  0
  7 27  1  0  0  0  0
  8 28  1  0  0  0  0
  8  9  1  0  0  0  0
  9 11  1  0  0  0  0
  9 10  2  0  0  0  0
 11 12  2  0  0  0  0
 12 16  1  0  0  0  0
 12 13  1  0  0  0  0
 13 29  1  0  0  0  0
 13 14  1  0  0  0  0
 14 30  1  0  0  0  0
 14 15  2  0  0  0  0
 15 31  1  0  0  0  0
 15 16  1  0  0  0  0
M  END
> <s_m_source_file>
AV-unprocessed.smi

> <i_m_source_file_index>
2784

> <i_lp_mmshare_version>
43012

> <i_f3d_flags>
0

> <s_epik_input>
W0NIM11PW0NAQEhdMVtDSDJdW0NIMl1bQ0gyXVtDQEhdMVtOSF1DKD1PKVtOSF1jMm5bY0hdW2NIXW8y

> <s_epik_cmdline>
J2VwaWtfcHl0aG9uJywgJy1waCcsICc3LjAnLCAnLXRuJywgJzgnLCAnLW1hJywgJzIwMCcsICctbWV0YWxfYmluZGluZycsICctaW1hZScsICc8aW5maWxlLm1hZT4nLCAnLW9tYWUnLCAnPG91dGZpbGUubWFlPic=

> <r_lp_tautomer_probability>
0.107061

> <r_epik_Ionization_Penalty>
1.29244

> <r_epik_Ionization_Penalty_Charging>
1.29208

> <r_epik_Ionization_Penalty_Neutral>
0.000359742

> <r_epik_State_Penalty>
2.59896

> <r_epik_Charging_Adjusted_Penalty>
3.89105

> <i_epik_Tot_Q>
0

> <i_epik_Tot_abs_Q>
0

> <r_epik_Metal_State_Penalty>
3.62496

> <b_epik_Metal_Only>
0

> <s_lp_Force_Field>
OPLS_2005

> <r_lp_Energy>
42.837

> <b_lp_Chiralities_Consistent>
1

> <s_lp_Variant>
AV-unprocessed.smi:2784-12

> <Gold.Version>
5.8.1

> <Gold.Id.Protein>
6NUR|6NUR_protein|mol2

> <Gold.PLP.Fitness>
42.6975

> <Gold.PLP.PLP>
-37.8860

> <Gold.PLP.part.hbond>
-1.0000

> <Gold.PLP.part.metal>
0.0000

> <Gold.PLP.part.buried>
-5.4414

> <Gold.PLP.part.nonpolar>
-31.8361

> <Gold.PLP.part.repulsive>
0.3437

> <Gold.PLP.ligand.clash>
0.0000

> <Gold.PLP.ligand.torsion>
0.5368

> <Gold.PLP.Chemscore.Hbond>
0.9600

> <Gold.PLP.Chemscore.CHOScore>
1.0000

> <Gold.PLP.Chemscore.Metal>
0.0000

> <Gold.Chemscore.Hbonds>
donor molecule, donor type, donor heavy atom, donor atom, acceptor molecule, acceptor atom, score
      P1  H  7997  8008       L1    10  1.00
      L1  C    15    31       P1  7948  1.00

> <Gold.PLP.Chemscore.Internal.Correction>
0.0052

> <Gold.Rescore>
     Score         DG    S(hbond)    S(metal)    S(lipo)     H(rot)  DE(clash)    DE(int)     intcor
     15.37     -15.92       0.98        0.00      90.33       1.32       0.05       0.49       ----

> <Gold.Chemscore.Fitness>
15.3748

> <Gold.Chemscore.DG>
-15.9173

> <Gold.Chemscore.ZeroCoef>
-5.4800

> <Gold.Chemscore.Hbond>
0.9752

> <Gold.Chemscore.Metal>
0.0000

> <Gold.Chemscore.Lipo>
90.3273

> <Gold.Chemscore.Internal_Hbond>
0.0000

> <Gold.Chemscore.DEClash>
0.0516

> <Gold.Chemscore.DEInternal>
0.4909

> <Gold.Chemscore.Rot>
1.3235

> <Gold.Chemscore.Internal.Correction>
   9.000000E+99

> <Gold.Chemscore.Hbonds>
donor molecule, donor type, donor heavy atom, donor atom, acceptor molecule, acceptor atom, score
      P1  H  7997  8008       L1    10  0.94

> <Gold.Chemscore.Hbond.Weighted>
-3.2572

> <Gold.Chemscore.Metal.Weighted>
-0.0000

> <Gold.Chemscore.Lipo.Weighted>
-10.5683

> <Gold.Chemscore.Internal_Hbond.Weighted>
0.0000

> <Gold.Chemscore.DEClash.Weighted>
0.0516

> <Gold.Chemscore.DEInternal.Weighted>
0.4909

> <Gold.Chemscore.Rot.Weighted>
3.3882

> <Gold.Chemscore.Internal.Correction.Weighted>
   9.000000E+99

> <Gold.Protein.RotatedTorsions>
[ 6907 6896 6895 6894 ] final   81.40 input  -60.11 | X-H torsion
[ 7974 7965 7964 7962 ] final   45.46 input  175.53 | X-H torsion
[ 8008 7997 7996 7995 ] final  -75.47 input   59.86 | X-H torsion
[ 10167 10162 10161 10158 ] final -113.09 input  -65.29 | X-H torsion
[ 10718 10713 10712 10709 ] final  168.67 input   66.30 | X-H torsion
[ 10763 10752 10751 10750 ] final   62.61 input  -60.55 | X-H torsion
[ 11005 11000 10999 10996 ] final  128.27 input  -57.11 | X-H torsion

> <Gold.Protein.ActiveResidues>
 VAL166  LYS551  ARG553  GLY616  TRP617  ASP618  TYR619  PRO620  LYS621  CYS622 
 ASP623  PHE694  ASN695  SER759  ASP760  ASP761  ALA762  ILE779  LEU786  VAL792 
 PHE793  MET794  SER795  GLU796  ALA797  LYS798  CYS799  TRP800  GLU811  SER814 

> <Gold.Protein.RotatedAtoms>
  152.5267  134.3210  159.9147 H   0  0  0  0  0  0  0  0  0  0  0  0  # atno 6907 bound_to 6896
  151.3159  133.4054  159.2658 H   0  0  0  0  0  0  0  0  0  0  0  0  # atno 6908 bound_to 6896
  150.9999  134.9331  159.8005 H   0  0  0  0  0  0  0  0  0  0  0  0  # atno 6909 bound_to 6896
  146.0478  139.4962  142.9737 H   0  0  0  0  0  0  0  0  0  0  0  0  # atno 7974 bound_to 7965
  154.5419  140.0743  156.8525 H   0  0  0  0  0  0  0  0  0  0  0  0  # atno 8008 bound_to 7997
  155.3163  140.3393  155.4224 H   0  0  0  0  0  0  0  0  0  0  0  0  # atno 8009 bound_to 7997
  156.1882  140.1676  156.8129 H   0  0  0  0  0  0  0  0  0  0  0  0  # atno 8010 bound_to 7997
  140.1156  143.4489  152.1724 H   0  0  0  0  0  0  0  0  0  0  0  0  # atno 10167 bound_to 10162
  157.0338  131.0267  151.2736 H   0  0  0  0  0  0  0  0  0  0  0  0  # atno 10718 bound_to 10713
  152.9988  135.5459  154.6220 H   0  0  0  0  0  0  0  0  0  0  0  0  # atno 10763 bound_to 10752
  154.5517  135.2827  155.1004 H   0  0  0  0  0  0  0  0  0  0  0  0  # atno 10764 bound_to 10752
  154.2241  135.6445  153.5207 H   0  0  0  0  0  0  0  0  0  0  0  0  # atno 10765 bound_to 10752
  139.9552  134.9614  156.8978 H   0  0  0  0  0  0  0  0  0  0  0  0  # atno 11005 bound_to 11000
  145.6776  141.0200  143.1624 LP  0  0  0  0  0  0  0  0  0  0  0  0  # atno 17320 bound_to 7965
  144.7107  139.8383  143.7415 LP  0  0  0  0  0  0  0  0  0  0  0  0  # atno 17321 bound_to 7965
  139.5596  144.7396  151.4194 LP  0  0  0  0  0  0  0  0  0  0  0  0  # atno 17342 bound_to 10162
  140.6901  143.7881  150.7243 LP  0  0  0  0  0  0  0  0  0  0  0  0  # atno 17343 bound_to 10162
  157.5157  130.7966  149.7753 LP  0  0  0  0  0  0  0  0  0  0  0  0  # atno 17370 bound_to 10713
  156.0060  130.3855  150.2428 LP  0  0  0  0  0  0  0  0  0  0  0  0  # atno 17371 bound_to 10713
  140.5626  134.0520  155.7404 LP  0  0  0  0  0  0  0  0  0  0  0  0  # atno 17394 bound_to 11000
  141.1222  133.9443  157.2707 LP  0  0  0  0  0  0  0  0  0  0  0  0  # atno 17395 bound_to 11000

$$$$
