AV-unprocessed.smi:372|AV-procd|sdf|2443|dock5
  -GOLD-   2262022383D 1   1.00000     0.00000
 Structure written by MMmdl.
 23 24  0  0  0  0  0  0  0  0  1 V2000
  149.8483  140.0090  156.8736 C   0  0  0  0  0  0  0  0  0  0  0  0
  151.0858  139.9661  157.7906 C   0  0  1  0  0  0  0  0  0  0  0  0
  151.5380  141.3766  158.2078 C   0  0  0  0  0  0  0  0  0  0  0  0
  152.5684  141.5805  159.1590 C   0  0  0  0  0  0  0  0  0  0  0  0
  152.9277  142.8981  159.5022 C   0  0  0  0  0  0  0  0  0  0  0  0
  152.2501  143.9692  158.8918 C   0  0  0  0  0  0  0  0  0  0  0  0
  151.2349  143.6727  157.9631 C   0  0  0  0  0  0  0  0  0  0  0  0
  150.8827  142.4133  157.6295 N   0  0  0  0  0  0  0  0  0  0  0  0
  150.8270  139.0875  158.9250 N   0  0  0  0  0  0  0  0  0  0  0  0
  151.6802  138.0584  159.0028 C   0  0  0  0  0  0  0  0  0  0  0  0
  151.6975  137.1985  159.8801 O   0  0  0  0  0  0  0  0  0  0  0  0
  152.4987  138.1259  157.9501 N   0  0  0  0  0  0  0  0  0  0  0  0
  152.2313  139.1677  157.1645 C   0  0  0  0  0  0  0  0  0  0  0  0
  152.7908  139.4413  156.1035 O   0  0  0  0  0  0  0  0  0  0  0  0
  150.0351  140.5995  155.9757 H   0  0  0  0  0  0  0  0  0  0  0  0
  148.9968  140.4553  157.3884 H   0  0  0  0  0  0  0  0  0  0  0  0
  149.5506  139.0102  156.5512 H   0  0  0  0  0  0  0  0  0  0  0  0
  153.0836  140.7556  159.6275 H   0  0  0  0  0  0  0  0  0  0  0  0
  153.7100  143.0835  160.2234 H   0  0  0  0  0  0  0  0  0  0  0  0
  152.5003  144.9921  159.1315 H   0  0  0  0  0  0  0  0  0  0  0  0
  150.6899  144.4675  157.4758 H   0  0  0  0  0  0  0  0  0  0  0  0
  150.0995  139.2726  159.6002 H   0  0  0  0  0  0  0  0  0  0  0  0
  153.2250  137.4511  157.7596 H   0  0  0  0  0  0  0  0  0  0  0  0
  1  2  1  0  0  0  0
  1 15  1  0  0  0  0
  1 16  1  0  0  0  0
  1 17  1  0  0  0  0
  2 13  1  0  0  0  0
  2  3  1  0  0  0  0
  2  9  1  0  0  0  0
  3  8  1  0  0  0  0
  3  4  2  0  0  0  0
  4  5  1  0  0  0  0
  4 18  1  0  0  0  0
  5  6  2  0  0  0  0
  5 19  1  0  0  0  0
  6  7  1  0  0  0  0
  6 20  1  0  0  0  0
  7  8  2  0  0  0  0
  7 21  1  0  0  0  0
  9 10  1  0  0  0  0
  9 22  1  0  0  0  0
 10 11  2  0  0  0  0
 10 12  1  0  0  0  0
 12 13  1  0  0  0  0
 12 23  1  0  0  0  0
 13 14  2  0  0  0  0
M  END
> <s_m_source_file>
AV-unprocessed.smi

> <i_m_source_file_index>
372

> <i_lp_mmshare_version>
43012

> <i_f3d_flags>
0

> <s_epik_input>
Tz1DMVtOSF1DKD1PKVtOSF1bQ0BAXTEoW0NIM10pYzJbY0hdW2NIXVtjSF1bY0hdbjI=

> <s_epik_cmdline>
J2VwaWtfcHl0aG9uJywgJy1waCcsICc3LjAnLCAnLXRuJywgJzgnLCAnLW1hJywgJzIwMCcsICctbWV0YWxfYmluZGluZycsICctaW1hZScsICc8aW5maWxlLm1hZT4nLCAnLW9tYWUnLCAnPG91dGZpbGUubWFlPic=

> <r_lp_tautomer_probability>
1

> <r_epik_Ionization_Penalty>
0.0293563

> <r_epik_Ionization_Penalty_Charging>
0

> <r_epik_Ionization_Penalty_Neutral>
0.0293563

> <r_epik_State_Penalty>
0.034944

> <r_epik_Charging_Adjusted_Penalty>
0.034944

> <i_epik_Tot_Q>
0

> <i_epik_Tot_abs_Q>
0

> <r_epik_Metal_State_Penalty>
0.534399

> <b_epik_Metal_Only>
0

> <s_lp_Force_Field>
OPLS_2005

> <r_lp_Energy>
17.2904

> <b_lp_Chiralities_Consistent>
1

> <s_lp_Variant>
AV-unprocessed.smi:372-1

> <Gold.Version>
5.8.1

> <Gold.Id.Protein>
6NUR|6NUR_protein|mol2

> <Gold.PLP.Fitness>
32.2327

> <Gold.PLP.PLP>
-23.4356

> <Gold.PLP.part.hbond>
-1.9876

> <Gold.PLP.part.metal>
0.0000

> <Gold.PLP.part.buried>
-4.3957

> <Gold.PLP.part.nonpolar>
-18.4915

> <Gold.PLP.part.repulsive>
0.3565

> <Gold.PLP.ligand.clash>
0.0000

> <Gold.PLP.ligand.torsion>
0.1469

> <Gold.PLP.Chemscore.Hbond>
1.9913

> <Gold.PLP.Chemscore.CHOScore>
1.0000

> <Gold.PLP.Chemscore.Metal>
0.0000

> <Gold.Chemscore.Hbonds>
donor molecule, donor type, donor heavy atom, donor atom, acceptor molecule, acceptor atom, score
      P1  H  6896  6909       L1    11  0.99
      P1  H  7997  8008       L1    14  1.00
      L1  C     7    21       P1  8028  0.98

> <Gold.PLP.Chemscore.Internal.Correction>
0.1172

> <Gold.Rescore>
     Score         DG    S(hbond)    S(metal)    S(lipo)     H(rot)  DE(clash)    DE(int)     intcor
     16.78     -16.85       1.97        0.00      62.77       1.00       0.00       0.07       ----

> <Gold.Chemscore.Fitness>
16.7787

> <Gold.Chemscore.DG>
-16.8523

> <Gold.Chemscore.ZeroCoef>
-5.4800

> <Gold.Chemscore.Hbond>
1.9726

> <Gold.Chemscore.Metal>
0.0000

> <Gold.Chemscore.Lipo>
62.7668

> <Gold.Chemscore.Internal_Hbond>
0.0000

> <Gold.Chemscore.DEClash>
0.0000

> <Gold.Chemscore.DEInternal>
0.0736

> <Gold.Chemscore.Rot>
1.0000

> <Gold.Chemscore.Internal.Correction>
   9.000000E+99

> <Gold.Chemscore.Hbonds>
donor molecule, donor type, donor heavy atom, donor atom, acceptor molecule, acceptor atom, score
      P1  H  6896  6909       L1    11  0.92
      P1  H  7997  8008       L1    14  0.98

> <Gold.Chemscore.Hbond.Weighted>
-6.5886

> <Gold.Chemscore.Metal.Weighted>
-0.0000

> <Gold.Chemscore.Lipo.Weighted>
-7.3437

> <Gold.Chemscore.Internal_Hbond.Weighted>
0.0000

> <Gold.Chemscore.DEClash.Weighted>
0.0000

> <Gold.Chemscore.DEInternal.Weighted>
0.0736

> <Gold.Chemscore.Rot.Weighted>
2.5600

> <Gold.Chemscore.Internal.Correction.Weighted>
   9.000000E+99

> <Gold.Protein.RotatedTorsions>
[ 6907 6896 6895 6894 ] final  115.52 input  -60.11 | X-H torsion
[ 7974 7965 7964 7962 ] final  118.18 input  175.53 | X-H torsion
[ 8008 7997 7996 7995 ] final  -26.58 input   59.86 | X-H torsion
[ 10167 10162 10161 10158 ] final  121.11 input  -65.29 | X-H torsion
[ 10718 10713 10712 10709 ] final  143.10 input   66.30 | X-H torsion
[ 10763 10752 10751 10750 ] final -148.24 input  -60.55 | X-H torsion
[ 11005 11000 10999 10996 ] final   75.28 input  -57.11 | X-H torsion

> <Gold.Protein.ActiveResidues>
 VAL166  LYS551  ARG553  GLY616  TRP617  ASP618  TYR619  PRO620  LYS621  CYS622 
 ASP623  PHE694  ASN695  SER759  ASP760  ASP761  ALA762  ILE779  LEU786  VAL792 
 PHE793  MET794  SER795  GLU796  ALA797  LYS798  CYS799  TRP800  GLU811  SER814 

> <Gold.Protein.RotatedAtoms>
  152.4736  133.8086  159.6991 H   0  0  0  0  0  0  0  0  0  0  0  0  # atno 6907 bound_to 6896
  150.8739  133.7456  159.2959 H   0  0  0  0  0  0  0  0  0  0  0  0  # atno 6908 bound_to 6896
  151.4982  135.1064  159.9874 H   0  0  0  0  0  0  0  0  0  0  0  0  # atno 6909 bound_to 6896
  145.1584  139.3169  143.4530 H   0  0  0  0  0  0  0  0  0  0  0  0  # atno 7974 bound_to 7965
  154.4418  140.1895  156.0798 H   0  0  0  0  0  0  0  0  0  0  0  0  # atno 8008 bound_to 7997
  156.0448  140.3315  155.7257 H   0  0  0  0  0  0  0  0  0  0  0  0  # atno 8009 bound_to 7997
  155.5646  140.0607  157.2811 H   0  0  0  0  0  0  0  0  0  0  0  0  # atno 8010 bound_to 7997
  139.5940  144.7035  151.3221 H   0  0  0  0  0  0  0  0  0  0  0  0  # atno 10167 bound_to 10162
  157.3728  131.0981  151.0812 H   0  0  0  0  0  0  0  0  0  0  0  0  # atno 10718 bound_to 10713
  154.8243  135.3339  154.6944 H   0  0  0  0  0  0  0  0  0  0  0  0  # atno 10763 bound_to 10752
  153.7572  135.6935  153.4937 H   0  0  0  0  0  0  0  0  0  0  0  0  # atno 10764 bound_to 10752
  153.2135  135.4474  155.0357 H   0  0  0  0  0  0  0  0  0  0  0  0  # atno 10765 bound_to 10752
  139.9351  134.7504  156.1252 H   0  0  0  0  0  0  0  0  0  0  0  0  # atno 11005 bound_to 11000
  146.3486  140.1685  142.8590 LP  0  0  0  0  0  0  0  0  0  0  0  0  # atno 17320 bound_to 7965
  145.0357  140.8906  143.5083 LP  0  0  0  0  0  0  0  0  0  0  0  0  # atno 17321 bound_to 7965
  140.7196  143.7171  150.7724 LP  0  0  0  0  0  0  0  0  0  0  0  0  # atno 17342 bound_to 10162
  140.0733  143.5040  152.2568 LP  0  0  0  0  0  0  0  0  0  0  0  0  # atno 17343 bound_to 10162
  157.1910  130.6352  149.5704 LP  0  0  0  0  0  0  0  0  0  0  0  0  # atno 17370 bound_to 10713
  155.9759  130.4722  150.6492 LP  0  0  0  0  0  0  0  0  0  0  0  0  # atno 17371 bound_to 10713
  141.0960  133.6695  156.2647 LP  0  0  0  0  0  0  0  0  0  0  0  0  # atno 17394 bound_to 11000
  140.6097  134.5470  157.5531 LP  0  0  0  0  0  0  0  0  0  0  0  0  # atno 17395 bound_to 11000

$$$$
