AV-unprocessed.smi:1754|AV-procd|sdf|7069|dock10
  -GOLD-   22720 8293D 1   1.00000     0.00000
 Structure written by MMmdl.
 44 45  0  0  0  0  0  0  0  0  3 V2000
  145.9467  131.7907  149.6185 C   0  0  0  0  0  0  0  0  0  0  0  0
  144.7251  132.0156  150.5187 C   0  0  0  0  0  0  0  0  0  0  0  0
  145.0706  132.7217  151.7494 N   0  0  0  0  0  0  0  0  0  0  0  0
  145.9821  132.0865  152.6996 C   0  0  0  0  0  0  0  0  0  0  0  0
  147.3302  132.8146  152.7860 C   0  0  0  0  0  0  0  0  0  0  0  0
  144.4903  133.9774  152.0436 C   0  0  0  0  0  0  0  0  0  0  0  0
  144.9051  135.1892  151.4375 C   0  0  0  0  0  0  0  0  0  0  0  0
  144.2717  136.4007  151.7821 C   0  0  0  0  0  0  0  0  0  0  0  0
  143.2348  136.4033  152.7367 C   0  0  0  0  0  0  0  0  0  0  0  0
  142.6086  137.6438  153.0325 N   0  0  0  0  0  0  0  0  0  0  0  0
  141.5343  137.9002  153.8190 C   0  0  0  0  0  0  0  0  0  0  0  0
  141.0231  136.9768  154.4500 O   0  0  0  0  0  0  0  0  0  0  0  0
  141.0564  139.1777  153.9197 N   0  5  0  0  0  0  0  0  0  0  0  0
  139.6658  139.6455  154.0586 C   0  0  1  0  0  0  0  0  0  0  0  0
  138.7829  138.9367  153.0082 C   0  0  0  0  0  0  0  0  0  0  0  0
  138.4287  137.5270  153.5010 C   0  0  0  0  0  0  0  0  0  0  0  0
  138.2581  137.6786  155.3166 S   0  0  0  0  0  0  0  0  0  0  0  0
  136.8397  137.8760  155.6540 O   0  0  0  0  0  0  0  0  0  0  0  0
  139.0453  136.6213  155.9699 O   0  0  0  0  0  0  0  0  0  0  0  0
  139.1284  139.2910  155.4598 C   0  0  0  0  0  0  0  0  0  0  0  0
  142.8468  135.1685  153.3059 C   0  0  0  0  0  0  0  0  0  0  0  0
  143.4805  134.0318  152.9465 N   0  3  0  0  0  0  0  0  0  0  0  0
  145.6651  131.2501  148.7147 H   0  0  0  0  0  0  0  0  0  0  0  0
  146.7118  131.2049  150.1289 H   0  0  0  0  0  0  0  0  0  0  0  0
  146.3970  132.7354  149.3130 H   0  0  0  0  0  0  0  0  0  0  0  0
  143.9374  132.5396  149.9780 H   0  0  0  0  0  0  0  0  0  0  0  0
  144.2989  131.0476  150.7837 H   0  0  0  0  0  0  0  0  0  0  0  0
  145.5123  132.0886  153.6837 H   0  0  0  0  0  0  0  0  0  0  0  0
  146.1314  131.0359  152.4494 H   0  0  0  0  0  0  0  0  0  0  0  0
  147.9837  132.3304  153.5118 H   0  0  0  0  0  0  0  0  0  0  0  0
  147.2017  133.8518  153.0967 H   0  0  0  0  0  0  0  0  0  0  0  0
  147.8450  132.8141  151.8249 H   0  0  0  0  0  0  0  0  0  0  0  0
  145.7061  135.2152  150.7149 H   0  0  0  0  0  0  0  0  0  0  0  0
  144.5870  137.3235  151.3175 H   0  0  0  0  0  0  0  0  0  0  0  0
  143.0455  138.4578  152.6254 H   0  0  0  0  0  0  0  0  0  0  0  0
  139.5958  140.7239  153.9082 H   0  0  0  0  0  0  0  0  0  0  0  0
  137.8573  139.5032  152.9011 H   0  0  0  0  0  0  0  0  0  0  0  0
  139.2467  138.9152  152.0212 H   0  0  0  0  0  0  0  0  0  0  0  0
  137.5082  137.1392  153.0652 H   0  0  0  0  0  0  0  0  0  0  0  0
  139.2361  136.8233  153.2917 H   0  0  0  0  0  0  0  0  0  0  0  0
  139.9027  139.2303  156.2253 H   0  0  0  0  0  0  0  0  0  0  0  0
  138.3953  140.0305  155.7815 H   0  0  0  0  0  0  0  0  0  0  0  0
  142.0482  135.0380  154.0206 H   0  0  0  0  0  0  0  0  0  0  0  0
  143.1741  133.1599  153.3779 H   0  0  0  0  0  0  0  0  0  0  0  0
  1  2  1  0  0  0  0
  1 23  1  0  0  0  0
  1 24  1  0  0  0  0
  1 25  1  0  0  0  0
  2  3  1  0  0  0  0
  2 26  1  0  0  0  0
  2 27  1  0  0  0  0
  3  4  1  0  0  0  0
  3  6  1  0  0  0  0
  4  5  1  0  0  0  0
  4 28  1  0  0  0  0
  4 29  1  0  0  0  0
  5 30  1  0  0  0  0
  5 31  1  0  0  0  0
  5 32  1  0  0  0  0
  6 22  1  0  0  0  0
  6  7  2  0  0  0  0
  7  8  1  0  0  0  0
  7 33  1  0  0  0  0
  8  9  2  0  0  0  0
  8 34  1  0  0  0  0
  9 10  1  0  0  0  0
  9 21  1  0  0  0  0
 10 11  1  0  0  0  0
 10 35  1  0  0  0  0
 11 12  2  0  0  0  0
 11 13  1  0  0  0  0
 13 14  1  0  0  0  0
 14 20  1  0  0  0  0
 14 15  1  0  0  0  0
 14 36  1  0  0  0  0
 15 16  1  0  0  0  0
 15 37  1  0  0  0  0
 15 38  1  0  0  0  0
 16 17  1  0  0  0  0
 16 39  1  0  0  0  0
 16 40  1  0  0  0  0
 17 18  2  0  0  0  0
 17 19  2  0  0  0  0
 17 20  1  0  0  0  0
 20 41  1  0  0  0  0
 20 42  1  0  0  0  0
 21 22  2  0  0  0  0
 21 43  1  0  0  0  0
 22 44  1  0  0  0  0
M  CHG  1  13  -1
M  CHG  1  22   1
M  END
> <s_m_source_file>
AV-unprocessed.smi

> <i_m_source_file_index>
1754

> <i_lp_mmshare_version>
43012

> <i_f3d_flags>
0

> <s_epik_input>
W0NIM11bQ0gyXU4oW0NIMl1bQ0gzXSljMVtjSF1bY0hdYyhbY0hdbjEpW05IXUMoPU8pW05IXVtDQEBIXShbQ0gyXTIpW0NIMl1bQ0gyXVMyKD1PKT1P

> <s_epik_cmdline>
J2VwaWtfcHl0aG9uJywgJy1waCcsICc3LjAnLCAnLXRuJywgJzgnLCAnLW1hJywgJzIwMCcsICctbWV0YWxfYmluZGluZycsICctaW1hZScsICc8aW5maWxlLm1hZT4nLCAnLW9tYWUnLCAnPG91dGZpbGUubWFlPic=

> <r_lp_tautomer_probability>
0.999994

> <r_epik_Ionization_Penalty>
7.1175

> <r_epik_Ionization_Penalty_Charging>
7.11749

> <r_epik_Ionization_Penalty_Neutral>
3.13064e-06

> <r_epik_State_Penalty>
6.65299

> <r_epik_Charging_Adjusted_Penalty>
13.7705

> <i_epik_Tot_Q>
0

> <i_epik_Tot_abs_Q>
2

> <r_epik_Metal_State_Penalty>
2.60496

> <b_epik_Metal_Only>
1

> <s_lp_Force_Field>
OPLS_2005

> <r_lp_Energy>
22.4709

> <b_lp_Chiralities_Consistent>
1

> <s_lp_Variant>
AV-unprocessed.smi:1754-6

> <Gold.Version>
5.8.1

> <Gold.Id.Protein>
6NUR|6NUR_protein|mol2

> <Gold.PLP.Fitness>
44.7646

> <Gold.PLP.PLP>
-36.6715

> <Gold.PLP.part.hbond>
-3.0000

> <Gold.PLP.part.metal>
0.0000

> <Gold.PLP.part.buried>
-5.4842

> <Gold.PLP.part.nonpolar>
-29.0861

> <Gold.PLP.part.repulsive>
0.3778

> <Gold.PLP.ligand.clash>
0.0000

> <Gold.PLP.ligand.torsion>
1.8861

> <Gold.PLP.Chemscore.Hbond>
3.9413

> <Gold.PLP.Chemscore.CHOScore>
0.0000

> <Gold.PLP.Chemscore.Metal>
0.0000

> <Gold.Chemscore.Hbonds>
donor molecule, donor type, donor heavy atom, donor atom, acceptor molecule, acceptor atom, score
      L1  H    10    35       P1 10175  0.93
      L1  H    22    44       P1 10957  1.95
      P1  H 11000 11005       L1    19  1.00

> <Gold.PLP.Chemscore.Internal.Correction>
0.0415

> <Gold.Rescore>
     Score         DG    S(hbond)    S(metal)    S(lipo)     H(rot)  DE(clash)    DE(int)     intcor
     12.62     -20.10       2.90        0.00      72.54       1.39       0.11       7.37       ----

> <Gold.Chemscore.Fitness>
12.6222

> <Gold.Chemscore.DG>
-20.1011

> <Gold.Chemscore.ZeroCoef>
-5.4800

> <Gold.Chemscore.Hbond>
2.9000

> <Gold.Chemscore.Metal>
0.0000

> <Gold.Chemscore.Lipo>
72.5430

> <Gold.Chemscore.Internal_Hbond>
0.0000

> <Gold.Chemscore.DEClash>
0.1079

> <Gold.Chemscore.DEInternal>
7.3710

> <Gold.Chemscore.Rot>
1.3876

> <Gold.Chemscore.Internal.Correction>
   9.000000E+99

> <Gold.Chemscore.Hbonds>
donor molecule, donor type, donor heavy atom, donor atom, acceptor molecule, acceptor atom, score
      L1  H    10    35       P1 10175  0.88
      L1  H    22    44       P1 10957  0.84
      P1  H 11000 11005       L1    19  1.00

> <Gold.Chemscore.Hbond.Weighted>
-9.6860

> <Gold.Chemscore.Metal.Weighted>
-0.0000

> <Gold.Chemscore.Lipo.Weighted>
-8.4875

> <Gold.Chemscore.Internal_Hbond.Weighted>
0.0000

> <Gold.Chemscore.DEClash.Weighted>
0.1079

> <Gold.Chemscore.DEInternal.Weighted>
7.3710

> <Gold.Chemscore.Rot.Weighted>
3.5524

> <Gold.Chemscore.Internal.Correction.Weighted>
   9.000000E+99

> <Gold.Protein.RotatedTorsions>
[ 6907 6896 6895 6894 ] final  120.34 input  -60.11 | X-H torsion
[ 7974 7965 7964 7962 ] final  -94.88 input  175.53 | X-H torsion
[ 8008 7997 7996 7995 ] final   10.16 input   59.86 | X-H torsion
[ 10167 10162 10161 10158 ] final   46.76 input  -65.29 | X-H torsion
[ 10718 10713 10712 10709 ] final  111.57 input   66.30 | X-H torsion
[ 10763 10752 10751 10750 ] final   41.29 input  -60.55 | X-H torsion
[ 11005 11000 10999 10996 ] final   97.93 input  -57.11 | X-H torsion

> <Gold.Protein.ActiveResidues>
 VAL166  LYS551  ARG553  GLY616  TRP617  ASP618  TYR619  PRO620  LYS621  CYS622 
 ASP623  PHE694  ASN695  SER759  ASP760  ASP761  ALA762  ILE779  LEU786  VAL792 
 PHE793  MET794  SER795  GLU796  ALA797  LYS798  CYS799  TRP800  GLU811  SER814 

> <Gold.Protein.RotatedAtoms>
  152.4405  133.7439  159.6656 H   0  0  0  0  0  0  0  0  0  0  0  0  # atno 6907 bound_to 6896
  150.8295  133.8105  159.3110 H   0  0  0  0  0  0  0  0  0  0  0  0  # atno 6908 bound_to 6896
  151.5763  135.1063  160.0058 H   0  0  0  0  0  0  0  0  0  0  0  0  # atno 6909 bound_to 6896
  145.3674  140.9500  143.2466 H   0  0  0  0  0  0  0  0  0  0  0  0  # atno 7974 bound_to 7965
  154.7897  140.2833  155.6001 H   0  0  0  0  0  0  0  0  0  0  0  0  # atno 8008 bound_to 7997
  156.2962  140.2607  156.2670 H   0  0  0  0  0  0  0  0  0  0  0  0  # atno 8009 bound_to 7997
  154.9685  140.0376  157.2213 H   0  0  0  0  0  0  0  0  0  0  0  0  # atno 8010 bound_to 7997
  140.3106  144.2825  150.6200 H   0  0  0  0  0  0  0  0  0  0  0  0  # atno 10167 bound_to 10162
  157.6438  131.0953  150.6768 H   0  0  0  0  0  0  0  0  0  0  0  0  # atno 10718 bound_to 10713
  152.9912  135.6166  154.2764 H   0  0  0  0  0  0  0  0  0  0  0  0  # atno 10763 bound_to 10752
  154.2495  135.2786  155.2824 H   0  0  0  0  0  0  0  0  0  0  0  0  # atno 10764 bound_to 10752
  154.5301  135.5790  153.6809 H   0  0  0  0  0  0  0  0  0  0  0  0  # atno 10765 bound_to 10752
  139.8774  134.9025  156.4380 H   0  0  0  0  0  0  0  0  0  0  0  0  # atno 11005 bound_to 11000
  144.8602  139.5189  143.6816 LP  0  0  0  0  0  0  0  0  0  0  0  0  # atno 17320 bound_to 7965
  146.2901  139.7114  142.9167 LP  0  0  0  0  0  0  0  0  0  0  0  0  # atno 17321 bound_to 7965
  140.5572  143.2197  151.7827 LP  0  0  0  0  0  0  0  0  0  0  0  0  # atno 17342 bound_to 10162
  139.4895  144.4398  151.9777 LP  0  0  0  0  0  0  0  0  0  0  0  0  # atno 17343 bound_to 10162
  156.7088  130.4645  149.5553 LP  0  0  0  0  0  0  0  0  0  0  0  0  # atno 17370 bound_to 10713
  156.1744  130.6458  151.0877 LP  0  0  0  0  0  0  0  0  0  0  0  0  # atno 17371 bound_to 10713
  140.9019  133.7773  155.9690 LP  0  0  0  0  0  0  0  0  0  0  0  0  # atno 17394 bound_to 11000
  140.8641  134.2805  157.5221 LP  0  0  0  0  0  0  0  0  0  0  0  0  # atno 17395 bound_to 11000

$$$$
