AV-unprocessed.smi:1767|AV-procd|sdf|7140|dock2
  -GOLD-   22720 8383D 1   1.00000     0.00000
 Structure written by MMmdl.
 32 34  0  0  0  0  0  0  0  0  1 V2000
  149.8642  143.8237  158.2722 O   0  0  0  0  0  0  0  0  0  0  0  0
  150.4589  142.5793  157.9652 C   0  0  1  0  0  0  0  0  0  0  0  0
  151.0118  142.6477  156.5279 C   0  0  0  0  0  0  0  0  0  0  0  0
  150.5273  141.5571  155.7007 N   0  0  0  0  0  0  0  0  0  0  0  0
  149.3050  141.4459  155.1461 C   0  0  0  0  0  0  0  0  0  0  0  0
  149.0576  140.3539  154.4288 N   0  0  0  0  0  0  0  0  0  0  0  0
  150.2605  139.6762  154.5281 C   0  0  0  0  0  0  0  0  0  0  0  0
  150.6584  138.4313  153.9902 C   0  0  0  0  0  0  0  0  0  0  0  0
  151.9545  137.9301  154.2316 C   0  0  0  0  0  0  0  0  0  0  0  0
  152.8712  138.6643  155.0118 C   0  0  0  0  0  0  0  0  0  0  0  0
  152.4983  139.9080  155.5565 C   0  0  0  0  0  0  0  0  0  0  0  0
  151.2035  140.4040  155.3151 C   0  0  0  0  0  0  0  0  0  0  0  0
  151.5271  142.1865  158.9769 C   0  0  0  0  0  0  0  0  0  0  0  0
  152.1634  140.9304  158.8771 C   0  0  0  0  0  0  0  0  0  0  0  0
  153.1742  140.5715  159.7896 C   0  0  0  0  0  0  0  0  0  0  0  0
  153.5541  141.4663  160.8083 C   0  0  0  0  0  0  0  0  0  0  0  0
  154.5276  141.1224  161.6842 F   0  0  0  0  0  0  0  0  0  0  0  0
  152.9220  142.7200  160.9142 C   0  0  0  0  0  0  0  0  0  0  0  0
  151.9117  143.0797  160.0015 C   0  0  0  0  0  0  0  0  0  0  0  0
  149.6157  144.2437  157.4627 H   0  0  0  0  0  0  0  0  0  0  0  0
  149.6571  141.8405  158.0005 H   0  0  0  0  0  0  0  0  0  0  0  0
  150.7081  143.5826  156.0545 H   0  0  0  0  0  0  0  0  0  0  0  0
  152.1027  142.6389  156.5266 H   0  0  0  0  0  0  0  0  0  0  0  0
  148.5526  142.2092  155.2810 H   0  0  0  0  0  0  0  0  0  0  0  0
  149.9643  137.8599  153.3917 H   0  0  0  0  0  0  0  0  0  0  0  0
  152.2468  136.9767  153.8161 H   0  0  0  0  0  0  0  0  0  0  0  0
  153.8612  138.2720  155.1929 H   0  0  0  0  0  0  0  0  0  0  0  0
  153.1974  140.4705  156.1571 H   0  0  0  0  0  0  0  0  0  0  0  0
  151.8866  140.2417  158.0923 H   0  0  0  0  0  0  0  0  0  0  0  0
  153.6605  139.6109  159.7057 H   0  0  0  0  0  0  0  0  0  0  0  0
  153.2150  143.4081  161.6933 H   0  0  0  0  0  0  0  0  0  0  0  0
  151.4399  144.0479  160.0852 H   0  0  0  0  0  0  0  0  0  0  0  0
  1  2  1  0  0  0  0
  1 20  1  0  0  0  0
  2  3  1  0  0  0  0
  2 13  1  0  0  0  0
  2 21  1  0  0  0  0
  3  4  1  0  0  0  0
  3 22  1  0  0  0  0
  3 23  1  0  0  0  0
  4 12  1  0  0  0  0
  4  5  1  0  0  0  0
  5  6  2  0  0  0  0
  5 24  1  0  0  0  0
  6  7  1  0  0  0  0
  7 12  2  0  0  0  0
  7  8  1  0  0  0  0
  8  9  2  0  0  0  0
  8 25  1  0  0  0  0
  9 10  1  0  0  0  0
  9 26  1  0  0  0  0
 10 11  2  0  0  0  0
 10 27  1  0  0  0  0
 11 12  1  0  0  0  0
 11 28  1  0  0  0  0
 13 19  1  0  0  0  0
 13 14  2  0  0  0  0
 14 15  1  0  0  0  0
 14 29  1  0  0  0  0
 15 16  2  0  0  0  0
 15 30  1  0  0  0  0
 16 17  1  0  0  0  0
 16 18  1  0  0  0  0
 18 19  2  0  0  0  0
 18 31  1  0  0  0  0
 19 32  1  0  0  0  0
M  END
> <s_m_source_file>
AV-unprocessed.smi

> <i_m_source_file_index>
1767

> <i_lp_mmshare_version>
43012

> <i_f3d_flags>
0

> <s_epik_input>
W2NIXTFbY0hdYyhGKVtjSF1bY0hdYzFbQ0BIXShbT0hdKVtDSDJdbihbY0hdbjIpYyhjMjMpW2NIXVtjSF1bY0hdW2NIXTM=

> <s_epik_cmdline>
J2VwaWtfcHl0aG9uJywgJy1waCcsICc3LjAnLCAnLXRuJywgJzgnLCAnLW1hJywgJzIwMCcsICctbWV0YWxfYmluZGluZycsICctaW1hZScsICc8aW5maWxlLm1hZT4nLCAnLW9tYWUnLCAnPG91dGZpbGUubWFlPic=

> <r_epik_Ionization_Penalty>
0.0696514

> <r_epik_Ionization_Penalty_Charging>
0

> <r_epik_Ionization_Penalty_Neutral>
0.0696514

> <r_epik_State_Penalty>
0.0610247

> <r_epik_Charging_Adjusted_Penalty>
0.0610247

> <i_epik_Tot_Q>
0

> <i_epik_Tot_abs_Q>
0

> <r_epik_Metal_State_Penalty>
6.42746e-05

> <b_epik_Metal_Only>
0

> <s_lp_Force_Field>
OPLS_2005

> <r_lp_Energy>
11.9243

> <b_lp_Chiralities_Consistent>
1

> <s_lp_Variant>
AV-unprocessed.smi:1767-2

> <Gold.Version>
5.8.1

> <Gold.Id.Protein>
6NUR|6NUR_protein|mol2

> <Gold.PLP.Fitness>
50.5837

> <Gold.PLP.PLP>
-46.4765

> <Gold.PLP.part.hbond>
-1.8424

> <Gold.PLP.part.metal>
0.0000

> <Gold.PLP.part.buried>
-1.4976

> <Gold.PLP.part.nonpolar>
-44.0148

> <Gold.PLP.part.repulsive>
0.1083

> <Gold.PLP.ligand.clash>
0.0000

> <Gold.PLP.ligand.torsion>
0.9632

> <Gold.PLP.Chemscore.Hbond>
1.0000

> <Gold.PLP.Chemscore.CHOScore>
1.0000

> <Gold.PLP.Chemscore.Metal>
0.0000

> <Gold.Chemscore.Hbonds>
donor molecule, donor type, donor heavy atom, donor atom, acceptor molecule, acceptor atom, score
      L1  H     1    20       P1  8028  0.90
      L1  C     5    24       P1  8028  0.93

> <Gold.PLP.Chemscore.Internal.Correction>
0.0336

> <Gold.Rescore>
     Score         DG    S(hbond)    S(metal)    S(lipo)     H(rot)  DE(clash)    DE(int)     intcor
     14.96     -16.24       0.74        0.00     112.80       1.91       0.18       1.10       ----

> <Gold.Chemscore.Fitness>
14.9579

> <Gold.Chemscore.DG>
-16.2413

> <Gold.Chemscore.ZeroCoef>
-5.4800

> <Gold.Chemscore.Hbond>
0.7356

> <Gold.Chemscore.Metal>
0.0000

> <Gold.Chemscore.Lipo>
112.8035

> <Gold.Chemscore.Internal_Hbond>
0.0000

> <Gold.Chemscore.DEClash>
0.1813

> <Gold.Chemscore.DEInternal>
1.1021

> <Gold.Chemscore.Rot>
1.9116

> <Gold.Chemscore.Internal.Correction>
   9.000000E+99

> <Gold.Chemscore.Hbonds>
donor molecule, donor type, donor heavy atom, donor atom, acceptor molecule, acceptor atom, score
      L1  H     1    20       P1  8028  0.17

> <Gold.Chemscore.Hbond.Weighted>
-2.4570

> <Gold.Chemscore.Metal.Weighted>
-0.0000

> <Gold.Chemscore.Lipo.Weighted>
-13.1980

> <Gold.Chemscore.Internal_Hbond.Weighted>
0.0000

> <Gold.Chemscore.DEClash.Weighted>
0.1813

> <Gold.Chemscore.DEInternal.Weighted>
1.1021

> <Gold.Chemscore.Rot.Weighted>
4.8937

> <Gold.Chemscore.Internal.Correction.Weighted>
   9.000000E+99

> <Gold.Protein.RotatedTorsions>
[ 6907 6896 6895 6894 ] final  149.11 input  -60.11 | X-H torsion
[ 7974 7965 7964 7962 ] final  -87.53 input  175.53 | X-H torsion
[ 8008 7997 7996 7995 ] final   12.01 input   59.86 | X-H torsion
[ 10167 10162 10161 10158 ] final   -6.58 input  -65.29 | X-H torsion
[ 10718 10713 10712 10709 ] final   55.79 input   66.30 | X-H torsion
[ 10763 10752 10751 10750 ] final  110.74 input  -60.55 | X-H torsion
[ 11005 11000 10999 10996 ] final  -73.24 input  -57.11 | X-H torsion

> <Gold.Protein.ActiveResidues>
 VAL166  LYS551  ARG553  GLY616  TRP617  ASP618  TYR619  PRO620  LYS621  CYS622 
 ASP623  PHE694  ASN695  SER759  ASP760  ASP761  ALA762  ILE779  LEU786  VAL792 
 PHE793  MET794  SER795  GLU796  ALA797  LYS798  CYS799  TRP800  GLU811  SER814 

> <Gold.Protein.RotatedAtoms>
  152.1324  133.4415  159.4726 H   0  0  0  0  0  0  0  0  0  0  0  0  # atno 6907 bound_to 6896
  150.6879  134.2404  159.4479 H   0  0  0  0  0  0  0  0  0  0  0  0  # atno 6908 bound_to 6896
  152.0289  134.9779  160.0623 H   0  0  0  0  0  0  0  0  0  0  0  0  # atno 6909 bound_to 6896
  145.4653  140.9560  143.1947 H   0  0  0  0  0  0  0  0  0  0  0  0  # atno 7974 bound_to 7965
  154.8147  140.2874  155.5828 H   0  0  0  0  0  0  0  0  0  0  0  0  # atno 8008 bound_to 7997
  156.2992  140.2561  156.2973 H   0  0  0  0  0  0  0  0  0  0  0  0  # atno 8009 bound_to 7997
  154.9407  140.0381  157.2084 H   0  0  0  0  0  0  0  0  0  0  0  0  # atno 8010 bound_to 7997
  140.7001  143.6177  150.8642 H   0  0  0  0  0  0  0  0  0  0  0  0  # atno 10167 bound_to 10162
  157.5375  130.8674  149.8775 H   0  0  0  0  0  0  0  0  0  0  0  0  # atno 10718 bound_to 10713
  153.4533  135.3739  155.2296 H   0  0  0  0  0  0  0  0  0  0  0  0  # atno 10763 bound_to 10752
  154.8756  135.3891  154.4012 H   0  0  0  0  0  0  0  0  0  0  0  0  # atno 10764 bound_to 10752
  153.4574  135.7086  153.6135 H   0  0  0  0  0  0  0  0  0  0  0  0  # atno 10765 bound_to 10752
  141.1620  133.6872  156.7182 H   0  0  0  0  0  0  0  0  0  0  0  0  # atno 11005 bound_to 11000
  144.7978  139.6200  143.7085 LP  0  0  0  0  0  0  0  0  0  0  0  0  # atno 17320 bound_to 7965
  146.2428  139.6036  142.9480 LP  0  0  0  0  0  0  0  0  0  0  0  0  # atno 17321 bound_to 7965
  139.9899  143.5859  152.2914 LP  0  0  0  0  0  0  0  0  0  0  0  0  # atno 17342 bound_to 10162
  139.6510  144.7660  151.2148 LP  0  0  0  0  0  0  0  0  0  0  0  0  # atno 17343 bound_to 10162
  156.0470  130.3725  150.1292 LP  0  0  0  0  0  0  0  0  0  0  0  0  # atno 17370 bound_to 10713
  156.9474  130.9764  151.3505 LP  0  0  0  0  0  0  0  0  0  0  0  0  # atno 17371 bound_to 10713
  140.2836  134.8297  157.3955 LP  0  0  0  0  0  0  0  0  0  0  0  0  # atno 17394 bound_to 11000
  140.1411  134.4971  155.8031 LP  0  0  0  0  0  0  0  0  0  0  0  0  # atno 17395 bound_to 11000

$$$$
