AV-unprocessed.smi:2735|AV-procd|sdf|10542|dock10
  -GOLD-   2272014593D 1   1.00000     0.00000
 Structure written by MMmdl.
 42 42  0  0  0  0  0  0  0  0  2 V2000
  153.9089  140.4140  161.2607 C   0  0  0  0  0  0  0  0  0  0  0  0
  153.2002  141.6250  160.7297 C   0  0  0  0  0  0  0  0  0  0  0  0
  153.1479  142.9305  161.2904 C   0  0  0  0  0  0  0  0  0  0  0  0
  152.3652  143.6396  160.4236 C   0  0  0  0  0  0  0  0  0  0  0  0
  151.9228  145.0653  160.4863 C   0  0  0  0  0  0  0  0  0  0  0  0
  152.0031  142.7757  159.4018 N   0  0  0  0  0  0  0  0  0  0  0  0
  151.1173  143.0187  158.2612 C   0  0  1  0  0  0  0  0  0  0  0  0
  151.8291  143.7903  157.1302 C   0  0  0  0  0  0  0  0  0  0  0  0
  150.4894  141.6962  157.7868 C   0  0  0  0  0  0  0  0  0  0  0  0
  149.8371  140.9895  158.5562 O   0  0  0  0  0  0  0  0  0  0  0  0
  150.6914  141.3861  156.4968 N   0  0  0  0  0  0  0  0  0  0  0  0
  150.1371  140.2372  155.7870 C   0  0  1  0  0  0  0  0  0  0  0  0
  149.2748  140.7544  154.6094 C   0  0  0  0  0  0  0  0  0  0  0  0
  148.0547  141.6173  155.0130 C   0  0  0  0  0  0  0  0  0  0  0  0
  147.2609  141.0121  156.1823 C   0  0  0  0  0  0  0  0  0  0  0  0
  147.1371  141.8545  153.8044 C   0  0  0  0  0  0  0  0  0  0  0  0
  151.2796  139.3821  155.2161 C   0  0  0  0  0  0  0  0  0  0  0  0
  152.4461  139.7540  155.4705 O   0  0  0  0  0  0  0  0  0  0  0  0
  150.9743  138.3708  154.5437 O   0  5  0  0  0  0  0  0  0  0  0  0
  152.5129  141.5378  159.6040 N   0  0  0  0  0  0  0  0  0  0  0  0
  149.5303  139.6260  156.4571 H   0  0  0  0  0  0  0  0  0  0  0  0
  154.0468  140.4831  162.3397 H   0  0  0  0  0  0  0  0  0  0  0  0
  154.8933  140.3064  160.8056 H   0  0  0  0  0  0  0  0  0  0  0  0
  153.3453  139.5023  161.0592 H   0  0  0  0  0  0  0  0  0  0  0  0
  153.6063  143.2897  162.1998 H   0  0  0  0  0  0  0  0  0  0  0  0
  152.3149  145.5553  161.3775 H   0  0  0  0  0  0  0  0  0  0  0  0
  150.8355  145.1357  160.5195 H   0  0  0  0  0  0  0  0  0  0  0  0
  152.2750  145.6207  159.6170 H   0  0  0  0  0  0  0  0  0  0  0  0
  150.2959  143.6480  158.6044 H   0  0  0  0  0  0  0  0  0  0  0  0
  151.1342  144.0413  156.3281 H   0  0  0  0  0  0  0  0  0  0  0  0
  152.6454  143.2143  156.6922 H   0  0  0  0  0  0  0  0  0  0  0  0
  152.2472  144.7259  157.5027 H   0  0  0  0  0  0  0  0  0  0  0  0
  151.2574  142.0155  155.9478 H   0  0  0  0  0  0  0  0  0  0  0  0
  149.8994  141.3443  153.9356 H   0  0  0  0  0  0  0  0  0  0  0  0
  148.9272  139.9033  154.0216 H   0  0  0  0  0  0  0  0  0  0  0  0
  148.4105  142.5980  155.3308 H   0  0  0  0  0  0  0  0  0  0  0  0
  146.9157  140.0047  155.9482 H   0  0  0  0  0  0  0  0  0  0  0  0
  146.3854  141.6187  156.4161 H   0  0  0  0  0  0  0  0  0  0  0  0
  147.8626  140.9594  157.0897 H   0  0  0  0  0  0  0  0  0  0  0  0
  146.7267  140.9170  153.4279 H   0  0  0  0  0  0  0  0  0  0  0  0
  147.6783  142.3329  152.9876 H   0  0  0  0  0  0  0  0  0  0  0  0
  146.3006  142.5029  154.0663 H   0  0  0  0  0  0  0  0  0  0  0  0
  1  2  1  0  0  0  0
  1 22  1  0  0  0  0
  1 23  1  0  0  0  0
  1 24  1  0  0  0  0
  2 20  2  0  0  0  0
  2  3  1  0  0  0  0
  3  4  2  0  0  0  0
  3 25  1  0  0  0  0
  4  5  1  0  0  0  0
  4  6  1  0  0  0  0
  5 26  1  0  0  0  0
  5 27  1  0  0  0  0
  5 28  1  0  0  0  0
  6  7  1  0  0  0  0
  6 20  1  0  0  0  0
  7  8  1  0  0  0  0
  7  9  1  0  0  0  0
  7 29  1  0  0  0  0
  8 30  1  0  0  0  0
  8 31  1  0  0  0  0
  8 32  1  0  0  0  0
  9 10  2  0  0  0  0
  9 11  1  0  0  0  0
 11 12  1  0  0  0  0
 11 33  1  0  0  0  0
 12 21  1  0  0  0  0
 12 13  1  0  0  0  0
 12 17  1  0  0  0  0
 13 14  1  0  0  0  0
 13 34  1  0  0  0  0
 13 35  1  0  0  0  0
 14 15  1  0  0  0  0
 14 16  1  0  0  0  0
 14 36  1  0  0  0  0
 15 37  1  0  0  0  0
 15 38  1  0  0  0  0
 15 39  1  0  0  0  0
 16 40  1  0  0  0  0
 16 41  1  0  0  0  0
 16 42  1  0  0  0  0
 17 18  2  0  0  0  0
 17 19  1  0  0  0  0
M  CHG  1  19  -1
M  END
> <s_m_source_file>
AV-unprocessed.smi

> <i_m_source_file_index>
2735

> <i_lp_mmshare_version>
43012

> <i_f3d_flags>
0

> <s_epik_input>
W0NIM11jMVtjSF1jKFtDSDNdKW4objEpW0NASF0oW0NIM10pQyg9TylbTkhdW0NASF0oQyg9TylbT0hdKVtDSDJdW0NIXShbQ0gzXSlbQ0gzXQ==

> <s_epik_cmdline>
J2VwaWtfcHl0aG9uJywgJy1waCcsICc3LjAnLCAnLXRuJywgJzgnLCAnLW1hJywgJzIwMCcsICctbWV0YWxfYmluZGluZycsICctaW1hZScsICc8aW5maWxlLm1hZT4nLCAnLW9tYWUnLCAnPG91dGZpbGUubWFlPic=

> <r_lp_tautomer_probability>
1

> <r_epik_Ionization_Penalty>
0.0012303

> <r_epik_Ionization_Penalty_Charging>
0.000186407

> <r_epik_Ionization_Penalty_Neutral>
0.0010439

> <r_epik_State_Penalty>
-0

> <r_epik_Charging_Adjusted_Penalty>
0.000186407

> <i_epik_Tot_Q>
-1

> <i_epik_Tot_abs_Q>
1

> <r_epik_Metal_State_Penalty>
-0

> <b_epik_Metal_Only>
0

> <s_lp_Force_Field>
OPLS_2005

> <r_lp_Energy>
6.48876

> <b_lp_Chiralities_Consistent>
1

> <s_lp_Variant>
AV-unprocessed.smi:2735-2

> <Gold.Version>
5.8.1

> <Gold.Id.Protein>
6NUR|6NUR_protein|mol2

> <Gold.PLP.Fitness>
47.2596

> <Gold.PLP.PLP>
-43.0408

> <Gold.PLP.part.hbond>
-2.0000

> <Gold.PLP.part.metal>
0.0000

> <Gold.PLP.part.buried>
-4.5537

> <Gold.PLP.part.nonpolar>
-36.6034

> <Gold.PLP.part.repulsive>
0.2774

> <Gold.PLP.ligand.clash>
0.5730

> <Gold.PLP.ligand.torsion>
0.6788

> <Gold.PLP.Chemscore.Hbond>
2.0000

> <Gold.PLP.Chemscore.CHOScore>
0.0000

> <Gold.PLP.Chemscore.Metal>
0.0000

> <Gold.Chemscore.Hbonds>
donor molecule, donor type, donor heavy atom, donor atom, acceptor molecule, acceptor atom, score
      P1  H  7997  8009       L1    18  1.85

> <Gold.PLP.Chemscore.Internal.Correction>
0.1494

> <Gold.Rescore>
     Score         DG    S(hbond)    S(metal)    S(lipo)     H(rot)  DE(clash)    DE(int)     intcor
     13.51     -15.53       1.00        0.00     106.34       2.24       0.08       1.93       ----

> <Gold.Chemscore.Fitness>
13.5133

> <Gold.Chemscore.DG>
-15.5301

> <Gold.Chemscore.ZeroCoef>
-5.4800

> <Gold.Chemscore.Hbond>
1.0000

> <Gold.Chemscore.Metal>
0.0000

> <Gold.Chemscore.Lipo>
106.3369

> <Gold.Chemscore.Internal_Hbond>
0.0000

> <Gold.Chemscore.DEClash>
0.0831

> <Gold.Chemscore.DEInternal>
1.9337

> <Gold.Chemscore.Rot>
2.2388

> <Gold.Chemscore.Internal.Correction>
   9.000000E+99

> <Gold.Chemscore.Hbonds>
donor molecule, donor type, donor heavy atom, donor atom, acceptor molecule, acceptor atom, score
      P1  H  7997  8009       L1    18  0.89

> <Gold.Chemscore.Hbond.Weighted>
-3.3400

> <Gold.Chemscore.Metal.Weighted>
-0.0000

> <Gold.Chemscore.Lipo.Weighted>
-12.4414

> <Gold.Chemscore.Internal_Hbond.Weighted>
0.0000

> <Gold.Chemscore.DEClash.Weighted>
0.0831

> <Gold.Chemscore.DEInternal.Weighted>
1.9337

> <Gold.Chemscore.Rot.Weighted>
5.7314

> <Gold.Chemscore.Internal.Correction.Weighted>
   9.000000E+99

> <Gold.Protein.RotatedTorsions>
[ 6907 6896 6895 6894 ] final  145.37 input  -60.11 | X-H torsion
[ 7974 7965 7964 7962 ] final   -9.50 input  175.53 | X-H torsion
[ 8008 7997 7996 7995 ] final -147.33 input   59.86 | X-H torsion
[ 10167 10162 10161 10158 ] final  124.99 input  -65.29 | X-H torsion
[ 10718 10713 10712 10709 ] final -114.61 input   66.30 | X-H torsion
[ 10763 10752 10751 10750 ] final -162.03 input  -60.55 | X-H torsion
[ 11005 11000 10999 10996 ] final  106.66 input  -57.11 | X-H torsion

> <Gold.Protein.ActiveResidues>
 VAL166  LYS551  ARG553  GLY616  TRP617  ASP618  TYR619  PRO620  LYS621  CYS622 
 ASP623  PHE694  ASN695  SER759  ASP760  ASP761  ALA762  ILE779  LEU786  VAL792 
 PHE793  MET794  SER795  GLU796  ALA797  LYS798  CYS799  TRP800  GLU811  SER814 

> <Gold.Protein.RotatedAtoms>
  152.1817  133.4712  159.4961 H   0  0  0  0  0  0  0  0  0  0  0  0  # atno 6907 bound_to 6896
  150.6936  134.1824  159.4263 H   0  0  0  0  0  0  0  0  0  0  0  0  # atno 6908 bound_to 6896
  151.9736  135.0064  160.0604 H   0  0  0  0  0  0  0  0  0  0  0  0  # atno 6909 bound_to 6896
  146.2250  140.2625  142.8352 H   0  0  0  0  0  0  0  0  0  0  0  0  # atno 7974 bound_to 7965
  155.5738  140.0637  157.2800 H   0  0  0  0  0  0  0  0  0  0  0  0  # atno 8008 bound_to 7997
  154.4353  140.1864  156.0952 H   0  0  0  0  0  0  0  0  0  0  0  0  # atno 8009 bound_to 7997
  156.0356  140.3301  155.7191 H   0  0  0  0  0  0  0  0  0  0  0  0  # atno 8010 bound_to 7997
  139.5710  144.6939  151.3778 H   0  0  0  0  0  0  0  0  0  0  0  0  # atno 10167 bound_to 10162
  156.0841  130.6036  150.8798 H   0  0  0  0  0  0  0  0  0  0  0  0  # atno 10718 bound_to 10713
  154.7250  135.3034  154.8985 H   0  0  0  0  0  0  0  0  0  0  0  0  # atno 10763 bound_to 10752
  153.9845  135.6726  153.4755 H   0  0  0  0  0  0  0  0  0  0  0  0  # atno 10764 bound_to 10752
  153.0867  135.4980  154.8530 H   0  0  0  0  0  0  0  0  0  0  0  0  # atno 10765 bound_to 10752
  139.8817  134.9376  156.5700 H   0  0  0  0  0  0  0  0  0  0  0  0  # atno 11005 bound_to 11000
  144.9328  140.7994  143.5678 LP  0  0  0  0  0  0  0  0  0  0  0  0  # atno 17320 bound_to 7965
  145.2571  139.2008  143.4912 LP  0  0  0  0  0  0  0  0  0  0  0  0  # atno 17321 bound_to 7965
  140.6994  143.7668  150.7379 LP  0  0  0  0  0  0  0  0  0  0  0  0  # atno 17342 bound_to 10162
  140.1174  143.4643  152.2334 LP  0  0  0  0  0  0  0  0  0  0  0  0  # atno 17343 bound_to 10162
  157.5969  131.0942  150.9025 LP  0  0  0  0  0  0  0  0  0  0  0  0  # atno 17370 bound_to 10713
  156.9190  130.5308  149.5279 LP  0  0  0  0  0  0  0  0  0  0  0  0  # atno 17371 bound_to 10713
  140.8105  133.8432  155.8806 LP  0  0  0  0  0  0  0  0  0  0  0  0  # atno 17394 bound_to 11000
  140.9510  134.1779  157.4727 LP  0  0  0  0  0  0  0  0  0  0  0  0  # atno 17395 bound_to 11000

$$$$
