AV-unprocessed.smi:3142|AV-procd|sdf|11971|dock10
  -GOLD-   2272017373D 1   1.00000     0.00000
 Structure written by MMmdl.
 36 38  0  0  0  0  0  0  0  0  1 V2000
  149.4969  141.1483  156.3165 C   0  0  0  0  0  0  0  0  0  0  0  0
  150.9591  140.8068  155.9706 C   0  0  1  0  0  0  0  0  0  0  0  0
  151.8949  140.8944  157.1855 C   0  0  0  0  0  0  0  0  0  0  0  0
  152.5699  139.9236  157.5300 O   0  0  0  0  0  0  0  0  0  0  0  0
  151.9275  142.0770  157.8200 N   0  0  0  0  0  0  0  0  0  0  0  0
  152.7596  142.4058  158.9720 C   0  0  0  0  0  0  0  0  0  0  0  0
  152.6155  141.4009  160.1036 C   0  0  0  0  0  0  0  0  0  0  0  0
  153.4407  141.5132  161.3642 C   0  0  0  0  0  0  0  0  0  0  0  0
  153.6905  140.3804  160.3958 C   0  0  0  0  0  0  0  0  0  0  0  0
  152.4762  143.8095  159.4742 C   0  0  0  0  0  0  0  0  0  0  0  0
  151.1947  144.5214  159.1133 C   0  0  0  0  0  0  0  0  0  0  0  0
  152.5126  145.0018  158.5477 C   0  0  0  0  0  0  0  0  0  0  0  0
  151.0695  139.4941  155.3500 N   0  0  0  0  0  0  0  0  0  0  0  0
  150.0402  138.6171  155.0222 C   0  0  0  0  0  0  0  0  0  0  0  0
  150.6314  137.4963  154.4850 C   0  0  0  0  0  0  0  0  0  0  0  0
  152.0151  137.6516  154.4842 N   0  0  0  0  0  0  0  0  0  0  0  0
  152.1989  138.8536  155.0147 C   0  0  0  0  0  0  0  0  0  0  0  0
  149.4166  142.1502  156.7395 H   0  0  0  0  0  0  0  0  0  0  0  0
  149.0726  140.4493  157.0381 H   0  0  0  0  0  0  0  0  0  0  0  0
  148.8706  141.1204  155.4243 H   0  0  0  0  0  0  0  0  0  0  0  0
  151.2992  141.5449  155.2419 H   0  0  0  0  0  0  0  0  0  0  0  0
  151.3399  142.8167  157.4640 H   0  0  0  0  0  0  0  0  0  0  0  0
  153.8033  142.3918  158.6505 H   0  0  0  0  0  0  0  0  0  0  0  0
  151.5917  141.0601  160.2474 H   0  0  0  0  0  0  0  0  0  0  0  0
  154.1930  142.2973  161.4161 H   0  0  0  0  0  0  0  0  0  0  0  0
  152.9530  141.2722  162.3064 H   0  0  0  0  0  0  0  0  0  0  0  0
  153.3680  139.3838  160.6904 H   0  0  0  0  0  0  0  0  0  0  0  0
  154.6058  140.4191  159.8086 H   0  0  0  0  0  0  0  0  0  0  0  0
  152.8428  143.9890  160.4834 H   0  0  0  0  0  0  0  0  0  0  0  0
  150.5096  144.0192  158.4332 H   0  0  0  0  0  0  0  0  0  0  0  0
  150.7248  145.1287  159.8843 H   0  0  0  0  0  0  0  0  0  0  0  0
  152.9218  145.9301  158.9408 H   0  0  0  0  0  0  0  0  0  0  0  0
  152.6945  144.8228  157.4900 H   0  0  0  0  0  0  0  0  0  0  0  0
  149.0009  138.8556  155.1942 H   0  0  0  0  0  0  0  0  0  0  0  0
  150.1711  136.5947  154.1088 H   0  0  0  0  0  0  0  0  0  0  0  0
  153.1810  139.2776  155.1647 H   0  0  0  0  0  0  0  0  0  0  0  0
  1  2  1  0  0  0  0
  1 18  1  0  0  0  0
  1 19  1  0  0  0  0
  1 20  1  0  0  0  0
  2  3  1  0  0  0  0
  2 13  1  0  0  0  0
  2 21  1  0  0  0  0
  3  4  2  0  0  0  0
  3  5  1  0  0  0  0
  5  6  1  0  0  0  0
  5 22  1  0  0  0  0
  6  7  1  0  0  0  0
  6 10  1  0  0  0  0
  6 23  1  0  0  0  0
  7  9  1  0  0  0  0
  7  8  1  0  0  0  0
  7 24  1  0  0  0  0
  8  9  1  0  0  0  0
  8 25  1  0  0  0  0
  8 26  1  0  0  0  0
  9 27  1  0  0  0  0
  9 28  1  0  0  0  0
 10 12  1  0  0  0  0
 10 11  1  0  0  0  0
 10 29  1  0  0  0  0
 11 12  1  0  0  0  0
 11 30  1  0  0  0  0
 11 31  1  0  0  0  0
 12 32  1  0  0  0  0
 12 33  1  0  0  0  0
 13 17  1  0  0  0  0
 13 14  1  0  0  0  0
 14 15  2  0  0  0  0
 14 34  1  0  0  0  0
 15 16  1  0  0  0  0
 15 35  1  0  0  0  0
 16 17  2  0  0  0  0
 17 36  1  0  0  0  0
M  END
> <s_m_source_file>
AV-unprocessed.smi

> <i_m_source_file_index>
3142

> <i_lp_mmshare_version>
43012

> <i_f3d_flags>
0

> <s_epik_input>
W2NIXTFuW2NIXVtjSF1uMVtDQEhdKFtDSDNdKUMoPU8pW05IXVtDSF0oW0NIXTJbQ0gyXVtDSDJdMilbQ0hdM1tDSDJdW0NIMl0z

> <s_epik_cmdline>
J2VwaWtfcHl0aG9uJywgJy1waCcsICc3LjAnLCAnLXRuJywgJzgnLCAnLW1hJywgJzIwMCcsICctbWV0YWxfYmluZGluZycsICctaW1hZScsICc8aW5maWxlLm1hZT4nLCAnLW9tYWUnLCAnPG91dGZpbGUubWFlPic=

> <r_lp_tautomer_probability>
1

> <r_epik_Ionization_Penalty>
0.32285

> <r_epik_Ionization_Penalty_Charging>
0.32285

> <r_epik_Ionization_Penalty_Neutral>
3.37967e-08

> <r_epik_State_Penalty>
0.317502

> <r_epik_Charging_Adjusted_Penalty>
0.640352

> <i_epik_Tot_Q>
0

> <i_epik_Tot_abs_Q>
0

> <r_epik_Metal_State_Penalty>
0.20415

> <b_epik_Metal_Only>
0

> <s_lp_Force_Field>
OPLS_2005

> <r_lp_Energy>
29.1263

> <b_lp_Chiralities_Consistent>
1

> <s_lp_Variant>
AV-unprocessed.smi:3142-2

> <Gold.Version>
5.8.1

> <Gold.Id.Protein>
6NUR|6NUR_protein|mol2

> <Gold.PLP.Fitness>
49.0256

> <Gold.PLP.PLP>
-42.6255

> <Gold.PLP.part.hbond>
-2.0000

> <Gold.PLP.part.metal>
0.0000

> <Gold.PLP.part.buried>
-4.3356

> <Gold.PLP.part.nonpolar>
-37.3875

> <Gold.PLP.part.repulsive>
0.1875

> <Gold.PLP.ligand.clash>
0.0000

> <Gold.PLP.ligand.torsion>
1.4661

> <Gold.PLP.Chemscore.Hbond>
1.4969

> <Gold.PLP.Chemscore.CHOScore>
0.8753

> <Gold.PLP.Chemscore.Metal>
0.0000

> <Gold.Chemscore.Hbonds>
donor molecule, donor type, donor heavy atom, donor atom, acceptor molecule, acceptor atom, score
      P1  H  7997  8008       L1     4  1.00
      P1  H 10752 10765       L1    16  0.50
      L1  C    15    35       P1  7948  0.91
      L1  C    15    35       P1  7949  0.02

> <Gold.PLP.Chemscore.Internal.Correction>
2.2158

> <Gold.Rescore>
     Score         DG    S(hbond)    S(metal)    S(lipo)     H(rot)  DE(clash)    DE(int)     intcor
     14.14     -18.33       1.81        0.00      98.58       1.85       0.01       4.17       ----

> <Gold.Chemscore.Fitness>
14.1424

> <Gold.Chemscore.DG>
-18.3298

> <Gold.Chemscore.ZeroCoef>
-5.4800

> <Gold.Chemscore.Hbond>
1.8125

> <Gold.Chemscore.Metal>
0.0000

> <Gold.Chemscore.Lipo>
98.5766

> <Gold.Chemscore.Internal_Hbond>
0.0000

> <Gold.Chemscore.DEClash>
0.0142

> <Gold.Chemscore.DEInternal>
4.1732

> <Gold.Chemscore.Rot>
1.8505

> <Gold.Chemscore.Internal.Correction>
   9.000000E+99

> <Gold.Chemscore.Hbonds>
donor molecule, donor type, donor heavy atom, donor atom, acceptor molecule, acceptor atom, score
      P1  H  7997  8008       L1     4  0.70
      P1  H 10752 10765       L1    16  0.35

> <Gold.Chemscore.Hbond.Weighted>
-6.0536

> <Gold.Chemscore.Metal.Weighted>
-0.0000

> <Gold.Chemscore.Lipo.Weighted>
-11.5335

> <Gold.Chemscore.Internal_Hbond.Weighted>
0.0000

> <Gold.Chemscore.DEClash.Weighted>
0.0142

> <Gold.Chemscore.DEInternal.Weighted>
4.1732

> <Gold.Chemscore.Rot.Weighted>
4.7373

> <Gold.Chemscore.Internal.Correction.Weighted>
   9.000000E+99

> <Gold.Protein.RotatedTorsions>
[ 6907 6896 6895 6894 ] final  -70.08 input  -60.11 | X-H torsion
[ 7974 7965 7964 7962 ] final -110.49 input  175.53 | X-H torsion
[ 8008 7997 7996 7995 ] final  -68.22 input   59.86 | X-H torsion
[ 10167 10162 10161 10158 ] final  -74.17 input  -65.29 | X-H torsion
[ 10718 10713 10712 10709 ] final -138.49 input   66.30 | X-H torsion
[ 10763 10752 10751 10750 ] final  160.01 input  -60.55 | X-H torsion
[ 11005 11000 10999 10996 ] final  162.44 input  -57.11 | X-H torsion

> <Gold.Protein.ActiveResidues>
 VAL166  LYS551  ARG553  GLY616  TRP617  ASP618  TYR619  PRO620  LYS621  CYS622 
 ASP623  PHE694  ASN695  SER759  ASP760  ASP761  ALA762  ILE779  LEU786  VAL792 
 PHE793  MET794  SER795  GLU796  ALA797  LYS798  CYS799  TRP800  GLU811  SER814 

> <Gold.Protein.RotatedAtoms>
  150.7274  134.5504  159.5791 H   0  0  0  0  0  0  0  0  0  0  0  0  # atno 6907 bound_to 6896
  152.2993  134.7627  160.0370 H   0  0  0  0  0  0  0  0  0  0  0  0  # atno 6908 bound_to 6896
  151.8214  133.3359  159.3622 H   0  0  0  0  0  0  0  0  0  0  0  0  # atno 6909 bound_to 6896
  145.1676  140.8910  143.3554 H   0  0  0  0  0  0  0  0  0  0  0  0  # atno 7974 bound_to 7965
  154.4853  140.0877  156.7471 H   0  0  0  0  0  0  0  0  0  0  0  0  # atno 8008 bound_to 7997
  155.4367  140.3452  155.4267 H   0  0  0  0  0  0  0  0  0  0  0  0  # atno 8009 bound_to 7997
  156.1252  140.1485  156.9135 H   0  0  0  0  0  0  0  0  0  0  0  0  # atno 8010 bound_to 7997
  140.5050  143.2354  151.7690 H   0  0  0  0  0  0  0  0  0  0  0  0  # atno 10167 bound_to 10162
  156.2999  130.7423  151.1471 H   0  0  0  0  0  0  0  0  0  0  0  0  # atno 10718 bound_to 10713
  154.2407  135.2775  155.2855 H   0  0  0  0  0  0  0  0  0  0  0  0  # atno 10763 bound_to 10752
  154.5547  135.5664  153.6957 H   0  0  0  0  0  0  0  0  0  0  0  0  # atno 10764 bound_to 10752
  153.0000  135.6283  154.2551 H   0  0  0  0  0  0  0  0  0  0  0  0  # atno 10765 bound_to 10752
  140.2258  134.8162  157.3267 H   0  0  0  0  0  0  0  0  0  0  0  0  # atno 11005 bound_to 11000
  145.0265  139.3378  143.6046 LP  0  0  0  0  0  0  0  0  0  0  0  0  # atno 17320 bound_to 7965
  146.3473  139.9587  142.8720 LP  0  0  0  0  0  0  0  0  0  0  0  0  # atno 17321 bound_to 7965
  139.4881  144.4470  151.9698 LP  0  0  0  0  0  0  0  0  0  0  0  0  # atno 17342 bound_to 10162
  140.3561  144.3030  150.5941 LP  0  0  0  0  0  0  0  0  0  0  0  0  # atno 17343 bound_to 10162
  157.7365  131.0561  150.5409 LP  0  0  0  0  0  0  0  0  0  0  0  0  # atno 17370 bound_to 10713
  156.5536  130.4238  149.6096 LP  0  0  0  0  0  0  0  0  0  0  0  0  # atno 17371 bound_to 10713
  140.1802  134.4499  155.7777 LP  0  0  0  0  0  0  0  0  0  0  0  0  # atno 17394 bound_to 11000
  141.2220  133.6980  156.7856 LP  0  0  0  0  0  0  0  0  0  0  0  0  # atno 17395 bound_to 11000

$$$$
