AV-unprocessed.smi:2819|AV-procd|sdf|10853|dock1
  -GOLD-   2272015293D 1   1.00000     0.00000
 Structure written by MMmdl.
 50 51  0  0  0  0  0  0  0  0  2 V2000
  151.5355  145.6734  160.5086 C   0  0  0  0  0  0  0  0  0  0  0  0
  152.1419  144.3716  160.7667 N   0  0  0  0  0  0  0  0  0  0  0  0
  152.6652  144.0548  162.0892 C   0  0  0  0  0  0  0  0  0  0  0  0
  152.2223  143.4188  159.7275 C   0  0  0  0  0  0  0  0  0  0  0  0
  153.2292  142.4238  159.6940 C   0  0  0  0  0  0  0  0  0  0  0  0
  153.2063  141.5317  158.6041 C   0  0  0  0  0  0  0  0  0  0  0  0
  152.2728  141.6146  157.6330 N   0  0  0  0  0  0  0  0  0  0  0  0
  151.3605  142.5825  157.7459 C   0  0  0  0  0  0  0  0  0  0  0  0
  150.4402  142.6187  156.7210 N   0  0  0  0  0  0  0  0  0  0  0  0
  150.2285  141.7657  155.7008 C   0  0  0  0  0  0  0  0  0  0  0  0
  150.8831  140.7478  155.4712 O   0  0  0  0  0  0  0  0  0  0  0  0
  149.1917  142.1588  154.9454 N   0  0  0  0  0  0  0  0  0  0  0  0
  148.6948  141.4617  153.7594 C   0  0  0  0  0  0  0  0  0  0  0  0
  147.1939  141.0509  153.8592 C   0  0  0  0  0  0  0  0  0  0  0  0
  146.3066  142.2861  154.1561 C   0  0  0  0  0  0  0  0  0  0  0  0
  146.7136  140.4989  152.4936 C   0  0  0  0  0  0  0  0  0  0  0  0
  146.9802  140.0126  154.9312 N   0  3  0  0  0  0  0  0  0  0  0  0
  147.7391  138.7404  154.7661 C   0  0  0  0  0  0  0  0  0  0  0  0
  147.2916  137.7036  155.8103 C   0  0  0  0  0  0  0  0  0  0  0  0
  147.4713  138.2304  157.1169 O   0  0  0  0  0  0  0  0  0  0  0  0
  146.6856  139.3952  157.3253 C   0  0  0  0  0  0  0  0  0  0  0  0
  147.1147  140.4921  156.3366 C   0  0  0  0  0  0  0  0  0  0  0  0
  151.2967  143.4785  158.7400 N   0  0  0  0  0  0  0  0  0  0  0  0
  152.0725  146.1959  159.7161 H   0  0  0  0  0  0  0  0  0  0  0  0
  151.5544  146.3051  161.3968 H   0  0  0  0  0  0  0  0  0  0  0  0
  150.4951  145.5574  160.2028 H   0  0  0  0  0  0  0  0  0  0  0  0
  153.7327  143.8387  162.0367 H   0  0  0  0  0  0  0  0  0  0  0  0
  152.1524  143.1878  162.5063 H   0  0  0  0  0  0  0  0  0  0  0  0
  152.5276  144.8868  162.7798 H   0  0  0  0  0  0  0  0  0  0  0  0
  153.9897  142.3320  160.4544 H   0  0  0  0  0  0  0  0  0  0  0  0
  153.9427  140.7476  158.5104 H   0  0  0  0  0  0  0  0  0  0  0  0
  149.8218  143.4156  156.7503 H   0  0  0  0  0  0  0  0  0  0  0  0
  148.7119  143.0084  155.2057 H   0  0  0  0  0  0  0  0  0  0  0  0
  148.8463  142.1430  152.9228 H   0  0  0  0  0  0  0  0  0  0  0  0
  149.3261  140.5968  153.5541 H   0  0  0  0  0  0  0  0  0  0  0  0
  146.2587  142.9656  153.3048 H   0  0  0  0  0  0  0  0  0  0  0  0
  146.6827  142.8752  154.9922 H   0  0  0  0  0  0  0  0  0  0  0  0
  145.2812  141.9938  154.3852 H   0  0  0  0  0  0  0  0  0  0  0  0
  146.6705  141.2814  151.7351 H   0  0  0  0  0  0  0  0  0  0  0  0
  145.7130  140.0713  152.5671 H   0  0  0  0  0  0  0  0  0  0  0  0
  147.3789  139.7321  152.0971 H   0  0  0  0  0  0  0  0  0  0  0  0
  147.5849  138.3060  153.7802 H   0  0  0  0  0  0  0  0  0  0  0  0
  148.8085  138.9215  154.8760 H   0  0  0  0  0  0  0  0  0  0  0  0
  146.2489  137.4204  155.6573 H   0  0  0  0  0  0  0  0  0  0  0  0
  147.8853  136.7941  155.7144 H   0  0  0  0  0  0  0  0  0  0  0  0
  145.6256  139.1613  157.2136 H   0  0  0  0  0  0  0  0  0  0  0  0
  146.8287  139.7375  158.3504 H   0  0  0  0  0  0  0  0  0  0  0  0
  148.1463  140.7776  156.5431 H   0  0  0  0  0  0  0  0  0  0  0  0
  146.4956  141.3668  156.5259 H   0  0  0  0  0  0  0  0  0  0  0  0
  146.0089  139.7520  154.8371 H   0  0  0  0  0  0  0  0  0  0  0  0
  1  2  1  0  0  0  0
  1 24  1  0  0  0  0
  1 25  1  0  0  0  0
  1 26  1  0  0  0  0
  2  3  1  0  0  0  0
  2  4  1  0  0  0  0
  3 27  1  0  0  0  0
  3 28  1  0  0  0  0
  3 29  1  0  0  0  0
  4 23  1  0  0  0  0
  4  5  2  0  0  0  0
  5  6  1  0  0  0  0
  5 30  1  0  0  0  0
  6  7  2  0  0  0  0
  6 31  1  0  0  0  0
  7  8  1  0  0  0  0
  8  9  1  0  0  0  0
  8 23  2  0  0  0  0
  9 10  1  0  0  0  0
  9 32  1  0  0  0  0
 10 11  2  0  0  0  0
 10 12  1  0  0  0  0
 12 13  1  0  0  0  0
 12 33  1  0  0  0  0
 13 14  1  0  0  0  0
 13 34  1  0  0  0  0
 13 35  1  0  0  0  0
 14 15  1  0  0  0  0
 14 16  1  0  0  0  0
 14 17  1  0  0  0  0
 15 36  1  0  0  0  0
 15 37  1  0  0  0  0
 15 38  1  0  0  0  0
 16 39  1  0  0  0  0
 16 40  1  0  0  0  0
 16 41  1  0  0  0  0
 17 22  1  0  0  0  0
 17 18  1  0  0  0  0
 17 50  1  0  0  0  0
 18 19  1  0  0  0  0
 18 42  1  0  0  0  0
 18 43  1  0  0  0  0
 19 20  1  0  0  0  0
 19 44  1  0  0  0  0
 19 45  1  0  0  0  0
 20 21  1  0  0  0  0
 21 22  1  0  0  0  0
 21 46  1  0  0  0  0
 21 47  1  0  0  0  0
 22 48  1  0  0  0  0
 22 49  1  0  0  0  0
M  CHG  1  17   1
M  END
> <s_m_source_file>
AV-unprocessed.smi

> <i_m_source_file_index>
2819

> <i_lp_mmshare_version>
43012

> <i_f3d_flags>
0

> <s_epik_input>
W0NIM11OKFtDSDNdKWMxW2NIXVtjSF1uYyhuMSlbTkhdQyg9TylbTkhdW0NIMl1DKFtDSDNdKShbQ0gzXSlOMltDSDJdW0NIMl1PW0NIMl1bQ0gyXTI=

> <s_epik_cmdline>
J2VwaWtfcHl0aG9uJywgJy1waCcsICc3LjAnLCAnLXRuJywgJzgnLCAnLW1hJywgJzIwMCcsICctbWV0YWxfYmluZGluZycsICctaW1hZScsICc8aW5maWxlLm1hZT4nLCAnLW9tYWUnLCAnPG91dGZpbGUubWFlPic=

> <r_epik_Ionization_Penalty>
1.64867

> <r_epik_Ionization_Penalty_Charging>
0.602531

> <r_epik_Ionization_Penalty_Neutral>
1.04614

> <r_epik_State_Penalty>
1.74763

> <r_epik_Charging_Adjusted_Penalty>
2.35016

> <i_epik_Tot_Q>
1

> <i_epik_Tot_abs_Q>
1

> <r_epik_Metal_State_Penalty>
1.04264

> <b_epik_Metal_Only>
0

> <s_lp_Force_Field>
OPLS_2005

> <r_lp_Energy>
22.1801

> <b_lp_Chiralities_Consistent>
1

> <s_lp_Variant>
AV-unprocessed.smi:2819-4

> <Gold.Version>
5.8.1

> <Gold.Id.Protein>
6NUR|6NUR_protein|mol2

> <Gold.PLP.Fitness>
43.7007

> <Gold.PLP.PLP>
-38.4338

> <Gold.PLP.part.hbond>
-2.0000

> <Gold.PLP.part.metal>
0.0000

> <Gold.PLP.part.buried>
-1.8743

> <Gold.PLP.part.nonpolar>
-35.4103

> <Gold.PLP.part.repulsive>
0.3484

> <Gold.PLP.ligand.clash>
0.0000

> <Gold.PLP.ligand.torsion>
0.4451

> <Gold.PLP.Chemscore.Hbond>
1.9913

> <Gold.PLP.Chemscore.CHOScore>
0.0000

> <Gold.PLP.Chemscore.Metal>
0.0000

> <Gold.Chemscore.Hbonds>
donor molecule, donor type, donor heavy atom, donor atom, acceptor molecule, acceptor atom, score
      L1  H     9    32       P1  8028  0.90
      L1  H    12    33       P1  8028  0.93
      P1  H  7989  7998       L1    11  0.68

> <Gold.PLP.Chemscore.Internal.Correction>
0.1833

> <Gold.Rescore>
     Score         DG    S(hbond)    S(metal)    S(lipo)     H(rot)  DE(clash)    DE(int)     intcor
     14.68     -17.14       1.92        0.00      78.87       1.55       0.43       2.04       ----

> <Gold.Chemscore.Fitness>
14.6767

> <Gold.Chemscore.DG>
-17.1420

> <Gold.Chemscore.ZeroCoef>
-5.4800

> <Gold.Chemscore.Hbond>
1.9172

> <Gold.Chemscore.Metal>
0.0000

> <Gold.Chemscore.Lipo>
78.8732

> <Gold.Chemscore.Internal_Hbond>
0.0000

> <Gold.Chemscore.DEClash>
0.4266

> <Gold.Chemscore.DEInternal>
2.0387

> <Gold.Chemscore.Rot>
1.5506

> <Gold.Chemscore.Internal.Correction>
   9.000000E+99

> <Gold.Chemscore.Hbonds>
donor molecule, donor type, donor heavy atom, donor atom, acceptor molecule, acceptor atom, score
      L1  H     9    32       P1  8028  0.87
      L1  H    12    33       P1  8028  0.91
      P1  H  7989  7998       L1    11  0.43

> <Gold.Chemscore.Hbond.Weighted>
-6.4033

> <Gold.Chemscore.Metal.Weighted>
-0.0000

> <Gold.Chemscore.Lipo.Weighted>
-9.2282

> <Gold.Chemscore.Internal_Hbond.Weighted>
0.0000

> <Gold.Chemscore.DEClash.Weighted>
0.4266

> <Gold.Chemscore.DEInternal.Weighted>
2.0387

> <Gold.Chemscore.Rot.Weighted>
3.9695

> <Gold.Chemscore.Internal.Correction.Weighted>
   9.000000E+99

> <Gold.Protein.RotatedTorsions>
[ 6907 6896 6895 6894 ] final  -41.72 input  -60.11 | X-H torsion
[ 7974 7965 7964 7962 ] final  -83.43 input  175.53 | X-H torsion
[ 8008 7997 7996 7995 ] final  -96.90 input   59.86 | X-H torsion
[ 10167 10162 10161 10158 ] final -145.39 input  -65.29 | X-H torsion
[ 10718 10713 10712 10709 ] final -162.32 input   66.30 | X-H torsion
[ 10763 10752 10751 10750 ] final   10.78 input  -60.55 | X-H torsion
[ 11005 11000 10999 10996 ] final -160.04 input  -57.11 | X-H torsion

> <Gold.Protein.ActiveResidues>
 VAL166  LYS551  ARG553  GLY616  TRP617  ASP618  TYR619  PRO620  LYS621  CYS622 
 ASP623  PHE694  ASN695  SER759  ASP760  ASP761  ALA762  ILE779  LEU786  VAL792 
 PHE793  MET794  SER795  GLU796  ALA797  LYS798  CYS799  TRP800  GLU811  SER814 

> <Gold.Protein.RotatedAtoms>
  150.9635  134.9019  159.7744 H   0  0  0  0  0  0  0  0  0  0  0  0  # atno 6907 bound_to 6896
  152.5165  134.3640  159.9304 H   0  0  0  0  0  0  0  0  0  0  0  0  # atno 6908 bound_to 6896
  151.3651  133.3834  159.2728 H   0  0  0  0  0  0  0  0  0  0  0  0  # atno 6909 bound_to 6896
  145.5201  140.9532  143.1660 H   0  0  0  0  0  0  0  0  0  0  0  0  # atno 7974 bound_to 7965
  154.7806  140.0467  157.1124 H   0  0  0  0  0  0  0  0  0  0  0  0  # atno 8008 bound_to 7997
  154.9710  140.3089  155.4968 H   0  0  0  0  0  0  0  0  0  0  0  0  # atno 8009 bound_to 7997
  156.2936  140.2253  156.4802 H   0  0  0  0  0  0  0  0  0  0  0  0  # atno 8010 bound_to 7997
  139.7810  143.8101  152.2638 H   0  0  0  0  0  0  0  0  0  0  0  0  # atno 10167 bound_to 10162
  156.6087  130.8841  151.2931 H   0  0  0  0  0  0  0  0  0  0  0  0  # atno 10718 bound_to 10713
  153.1995  135.6854  153.8249 H   0  0  0  0  0  0  0  0  0  0  0  0  # atno 10763 bound_to 10752
  153.7520  135.3222  155.3324 H   0  0  0  0  0  0  0  0  0  0  0  0  # atno 10764 bound_to 10752
  154.8163  135.4683  154.0755 H   0  0  0  0  0  0  0  0  0  0  0  0  # atno 10765 bound_to 10752
  140.6359  134.4602  157.5231 H   0  0  0  0  0  0  0  0  0  0  0  0  # atno 11005 bound_to 11000
  144.7680  139.6799  143.7206 LP  0  0  0  0  0  0  0  0  0  0  0  0  # atno 17320 bound_to 7965
  146.2111  139.5468  142.9680 LP  0  0  0  0  0  0  0  0  0  0  0  0  # atno 17321 bound_to 7965
  139.8164  144.7314  150.9630 LP  0  0  0  0  0  0  0  0  0  0  0  0  # atno 17342 bound_to 10162
  140.7818  143.4201  151.0855 LP  0  0  0  0  0  0  0  0  0  0  0  0  # atno 17343 bound_to 10162
  157.7260  130.9623  150.1638 LP  0  0  0  0  0  0  0  0  0  0  0  0  # atno 17370 bound_to 10713
  156.2408  130.3691  149.8340 LP  0  0  0  0  0  0  0  0  0  0  0  0  # atno 17371 bound_to 10713
  139.9098  134.8369  156.1569 LP  0  0  0  0  0  0  0  0  0  0  0  0  # atno 17394 bound_to 11000
  141.0642  133.6827  156.2012 LP  0  0  0  0  0  0  0  0  0  0  0  0  # atno 17395 bound_to 11000

$$$$
