AV-unprocessed.smi:283|AV-procd|sdf|2131|dock2
  -GOLD-   2262021443D 1   1.00000     0.00000
 Structure written by MMmdl.
 48 51  0  0  0  0  0  0  0  0  1 V2000
  152.7769  139.4598  159.2248 C   0  0  0  0  0  0  0  0  0  0  0  0
  151.9393  140.2304  158.1958 C   0  0  2  0  0  0  0  0  0  0  0  0
  152.3913  139.9108  156.8427 N   0  0  0  0  0  0  0  0  0  0  0  0
  151.6658  139.1015  156.0376 C   0  0  0  0  0  0  0  0  0  0  0  0
  150.8392  139.6118  155.0873 N   0  0  0  0  0  0  0  0  0  0  0  0
  150.1329  138.7917  154.3045 C   0  0  0  0  0  0  0  0  0  0  0  0
  150.1006  137.4577  154.3095 N   0  0  0  0  0  0  0  0  0  0  0  0
  150.9220  136.9379  155.2672 C   0  0  0  0  0  0  0  0  0  0  0  0
  151.7334  137.6897  156.1630 C   0  0  0  0  0  0  0  0  0  0  0  0
  152.4402  136.8294  156.9926 N   0  0  0  0  0  0  0  0  0  0  0  0
  152.0628  135.6397  156.6084 C   0  0  0  0  0  0  0  0  0  0  0  0
  151.1514  135.6113  155.5762 N   0  0  0  0  0  0  0  0  0  0  0  0
  150.5445  134.4005  154.9363 C   0  0  1  0  0  0  0  0  0  0  0  0
  151.1083  133.2454  155.4822 O   0  0  0  0  0  0  0  0  0  0  0  0
  150.1178  132.2311  155.6685 C   0  0  1  0  0  0  0  0  0  0  0  0
  150.0399  131.9157  157.1764 C   0  0  0  0  0  0  0  0  0  0  0  0
  150.1210  133.1009  157.9402 O   0  0  0  0  0  0  0  0  0  0  0  0
  148.8393  132.8039  155.0280 C   0  0  1  0  0  0  0  0  0  0  0  0
  147.6153  132.3522  155.5766 O   0  0  0  0  0  0  0  0  0  0  0  0
  149.0259  134.3085  155.1283 C   0  0  1  0  0  0  0  0  0  0  0  0
  148.5781  134.8432  156.3635 O   0  0  0  0  0  0  0  0  0  0  0  0
  151.9396  141.7261  158.5177 C   0  0  0  0  0  0  0  0  0  0  0  0
  152.7766  142.2161  159.5465 C   0  0  0  0  0  0  0  0  0  0  0  0
  152.7966  143.5870  159.8642 C   0  0  0  0  0  0  0  0  0  0  0  0
  151.9759  144.4836  159.1569 C   0  0  0  0  0  0  0  0  0  0  0  0
  151.1331  144.0059  158.1365 C   0  0  0  0  0  0  0  0  0  0  0  0
  151.1071  142.6339  157.8155 C   0  0  0  0  0  0  0  0  0  0  0  0
  150.0426  142.1047  156.5597 Cl  0  0  0  0  0  0  0  0  0  0  0  0
  150.8278  134.4660  153.8850 H   0  0  0  0  0  0  0  0  0  0  0  0
  150.4409  131.3380  155.1319 H   0  0  0  0  0  0  0  0  0  0  0  0
  148.8447  132.5317  153.9714 H   0  0  0  0  0  0  0  0  0  0  0  0
  148.5210  134.8393  154.3203 H   0  0  0  0  0  0  0  0  0  0  0  0
  152.4021  139.6248  160.2354 H   0  0  0  0  0  0  0  0  0  0  0  0
  153.8217  139.7717  159.2021 H   0  0  0  0  0  0  0  0  0  0  0  0
  152.7448  138.3868  159.0339 H   0  0  0  0  0  0  0  0  0  0  0  0
  150.9214  139.8495  158.2669 H   0  0  0  0  0  0  0  0  0  0  0  0
  153.2104  140.4085  156.5248 H   0  0  0  0  0  0  0  0  0  0  0  0
  149.5036  139.2724  153.5702 H   0  0  0  0  0  0  0  0  0  0  0  0
  152.4433  134.7408  157.0717 H   0  0  0  0  0  0  0  0  0  0  0  0
  149.0835  131.4456  157.4069 H   0  0  0  0  0  0  0  0  0  0  0  0
  150.8181  131.2187  157.4863 H   0  0  0  0  0  0  0  0  0  0  0  0
  149.3435  133.6142  157.7806 H   0  0  0  0  0  0  0  0  0  0  0  0
  147.4069  132.8964  156.3212 H   0  0  0  0  0  0  0  0  0  0  0  0
  149.3009  135.2936  156.7735 H   0  0  0  0  0  0  0  0  0  0  0  0
  153.4100  141.5385  160.1001 H   0  0  0  0  0  0  0  0  0  0  0  0
  153.4412  143.9499  160.6512 H   0  0  0  0  0  0  0  0  0  0  0  0
  151.9904  145.5362  159.3982 H   0  0  0  0  0  0  0  0  0  0  0  0
  150.5015  144.6969  157.5980 H   0  0  0  0  0  0  0  0  0  0  0  0
  1  2  1  0  0  0  0
  1 33  1  0  0  0  0
  1 34  1  0  0  0  0
  1 35  1  0  0  0  0
  2  3  1  0  0  0  0
  2 22  1  0  0  0  0
  2 36  1  0  0  0  0
  3  4  1  0  0  0  0
  3 37  1  0  0  0  0
  4  9  1  0  0  0  0
  4  5  2  0  0  0  0
  5  6  1  0  0  0  0
  6  7  2  0  0  0  0
  6 38  1  0  0  0  0
  7  8  1  0  0  0  0
  8 12  1  0  0  0  0
  8  9  2  0  0  0  0
  9 10  1  0  0  0  0
 10 11  2  0  0  0  0
 11 12  1  0  0  0  0
 11 39  1  0  0  0  0
 12 13  1  0  0  0  0
 13 29  1  0  0  0  0
 13 20  1  0  0  0  0
 13 14  1  0  0  0  0
 14 15  1  0  0  0  0
 15 30  1  0  0  0  0
 15 16  1  0  0  0  0
 15 18  1  0  0  0  0
 16 17  1  0  0  0  0
 16 40  1  0  0  0  0
 16 41  1  0  0  0  0
 17 42  1  0  0  0  0
 18 31  1  0  0  0  0
 18 19  1  0  0  0  0
 18 20  1  0  0  0  0
 19 43  1  0  0  0  0
 20 32  1  0  0  0  0
 20 21  1  0  0  0  0
 21 44  1  0  0  0  0
 22 27  1  0  0  0  0
 22 23  2  0  0  0  0
 23 24  1  0  0  0  0
 23 45  1  0  0  0  0
 24 25  2  0  0  0  0
 24 46  1  0  0  0  0
 25 26  1  0  0  0  0
 25 47  1  0  0  0  0
 26 27  2  0  0  0  0
 26 48  1  0  0  0  0
 27 28  1  0  0  0  0
M  END
> <s_m_source_file>
AV-unprocessed.smi

> <i_m_source_file_index>
283

> <i_lp_mmshare_version>
43012

> <i_f3d_flags>
0

> <s_epik_input>
Q2xjMVtjSF1bY0hdW2NIXVtjSF1jMVtDQEhdKFtDSDNdKVtOSF1jKG5bY0hdbjIpYyhjMjMpbltjSF1uM1tDQEBIXTRPW0NASF0oW0NIMl1bT0hdKVtDQEBIXShbT0hdKVtDQEhdNFtPSF0=

> <s_epik_cmdline>
J2VwaWtfcHl0aG9uJywgJy1waCcsICc3LjAnLCAnLXRuJywgJzgnLCAnLW1hJywgJzIwMCcsICctbWV0YWxfYmluZGluZycsICctaW1hZScsICc8aW5maWxlLm1hZT4nLCAnLW9tYWUnLCAnPG91dGZpbGUubWFlPic=

> <r_lp_tautomer_probability>
1

> <r_epik_Ionization_Penalty>
0.000266407

> <r_epik_Ionization_Penalty_Charging>
0

> <r_epik_Ionization_Penalty_Neutral>
0.000266407

> <r_epik_State_Penalty>
-0

> <r_epik_Charging_Adjusted_Penalty>
0

> <i_epik_Tot_Q>
0

> <i_epik_Tot_abs_Q>
0

> <r_epik_Metal_State_Penalty>
-0

> <b_epik_Metal_Only>
0

> <s_epik_Chemistry_Notes>
This compound contains an acetal/aminal-like group ( X-CH(R)-Y where X, Y are N, S, or O) that may be acid/base labile, releasing an aldehyde.

> <s_lp_Force_Field>
OPLS_2005

> <r_lp_Energy>
56.5757

> <b_lp_Chiralities_Consistent>
1

> <s_lp_Variant>
AV-unprocessed.smi:283-7

> <Gold.Version>
5.8.1

> <Gold.Id.Protein>
6NUR|6NUR_protein|mol2

> <Gold.PLP.Fitness>
47.5664

> <Gold.PLP.PLP>
-41.8004

> <Gold.PLP.part.hbond>
-2.0000

> <Gold.PLP.part.metal>
0.0000

> <Gold.PLP.part.buried>
-3.4195

> <Gold.PLP.part.nonpolar>
-39.3230

> <Gold.PLP.part.repulsive>
3.1824

> <Gold.PLP.ligand.clash>
0.0000

> <Gold.PLP.ligand.torsion>
1.1138

> <Gold.PLP.Chemscore.Hbond>
1.6500

> <Gold.PLP.Chemscore.CHOScore>
1.0000

> <Gold.PLP.Chemscore.Metal>
0.0000

> <Gold.Chemscore.Hbonds>
donor molecule, donor type, donor heavy atom, donor atom, acceptor molecule, acceptor atom, score
      P1  H  6896  6909       L1    17  1.00
      P1  H  7989  7998       L1     5  0.54
      L1  C     6    38       P1  7957  1.00

> <Gold.PLP.Chemscore.Internal.Correction>
0.0436

> <Gold.Rescore>
     Score         DG    S(hbond)    S(metal)    S(lipo)     H(rot)  DE(clash)    DE(int)     intcor
      8.52     -10.66       1.00        0.00     105.40       4.10       0.89       1.25       ----

> <Gold.Chemscore.Fitness>
8.5198

> <Gold.Chemscore.DG>
-10.6573

> <Gold.Chemscore.ZeroCoef>
-5.4800

> <Gold.Chemscore.Hbond>
0.9981

> <Gold.Chemscore.Metal>
0.0000

> <Gold.Chemscore.Lipo>
105.3987

> <Gold.Chemscore.Internal_Hbond>
0.0000

> <Gold.Chemscore.DEClash>
0.8874

> <Gold.Chemscore.DEInternal>
1.2501

> <Gold.Chemscore.Rot>
4.0968

> <Gold.Chemscore.Internal.Correction>
   9.000000E+99

> <Gold.Chemscore.Hbonds>
donor molecule, donor type, donor heavy atom, donor atom, acceptor molecule, acceptor atom, score
      P1  H  6896  6909       L1    17  0.90
      P1  H  7989  7998       L1     5  0.09

> <Gold.Chemscore.Hbond.Weighted>
-3.3336

> <Gold.Chemscore.Metal.Weighted>
-0.0000

> <Gold.Chemscore.Lipo.Weighted>
-12.3316

> <Gold.Chemscore.Internal_Hbond.Weighted>
0.0000

> <Gold.Chemscore.DEClash.Weighted>
0.8874

> <Gold.Chemscore.DEInternal.Weighted>
1.2501

> <Gold.Chemscore.Rot.Weighted>
10.4879

> <Gold.Chemscore.Internal.Correction.Weighted>
   9.000000E+99

> <Gold.Protein.RotatedTorsions>
[ 6907 6896 6895 6894 ] final  -17.77 input  -60.11 | X-H torsion
[ 7974 7965 7964 7962 ] final  138.88 input  175.53 | X-H torsion
[ 8008 7997 7996 7995 ] final  134.43 input   59.86 | X-H torsion
[ 10167 10162 10161 10158 ] final  108.07 input  -65.29 | X-H torsion
[ 10718 10713 10712 10709 ] final   88.30 input   66.30 | X-H torsion
[ 10763 10752 10751 10750 ] final   34.42 input  -60.55 | X-H torsion
[ 11005 11000 10999 10996 ] final  146.35 input  -57.11 | X-H torsion

> <Gold.Protein.ActiveResidues>
 VAL166  LYS551  ARG553  GLY616  TRP617  ASP618  TYR619  PRO620  LYS621  CYS622 
 ASP623  PHE694  ASN695  SER759  ASP760  ASP761  ALA762  ILE779  LEU786  VAL792 
 PHE793  MET794  SER795  GLU796  ALA797  LYS798  CYS799  TRP800  GLU811  SER814 

> <Gold.Protein.RotatedAtoms>
  151.2883  135.0734  159.9194 H   0  0  0  0  0  0  0  0  0  0  0  0  # atno 6907 bound_to 6896
  152.5321  133.9958  159.7882 H   0  0  0  0  0  0  0  0  0  0  0  0  # atno 6908 bound_to 6896
  151.0224  133.5814  159.2700 H   0  0  0  0  0  0  0  0  0  0  0  0  # atno 6909 bound_to 6896
  144.9331  139.5023  143.5608 H   0  0  0  0  0  0  0  0  0  0  0  0  # atno 7974 bound_to 7965
  156.2999  140.2496  156.3415 H   0  0  0  0  0  0  0  0  0  0  0  0  # atno 8008 bound_to 7997
  154.9050  140.0405  157.1934 H   0  0  0  0  0  0  0  0  0  0  0  0  # atno 8009 bound_to 7997
  154.8462  140.2898  155.5632 H   0  0  0  0  0  0  0  0  0  0  0  0  # atno 8010 bound_to 7997
  139.6876  144.7111  151.1405 H   0  0  0  0  0  0  0  0  0  0  0  0  # atno 10167 bound_to 10162
  157.6948  131.0289  150.3254 H   0  0  0  0  0  0  0  0  0  0  0  0  # atno 10718 bound_to 10713
  153.0165  135.6361  154.1667 H   0  0  0  0  0  0  0  0  0  0  0  0  # atno 10763 bound_to 10752
  154.1405  135.2835  155.3163 H   0  0  0  0  0  0  0  0  0  0  0  0  # atno 10764 bound_to 10752
  154.6128  135.5551  153.7552 H   0  0  0  0  0  0  0  0  0  0  0  0  # atno 10765 bound_to 10752
  140.0786  134.9110  157.1464 H   0  0  0  0  0  0  0  0  0  0  0  0  # atno 11005 bound_to 11000
  146.3255  139.8295  142.8911 LP  0  0  0  0  0  0  0  0  0  0  0  0  # atno 17320 bound_to 7965
  145.3111  141.0220  143.3554 LP  0  0  0  0  0  0  0  0  0  0  0  0  # atno 17321 bound_to 7965
  140.7672  143.5607  150.9102 LP  0  0  0  0  0  0  0  0  0  0  0  0  # atno 17342 bound_to 10162
  139.9283  143.6524  152.3082 LP  0  0  0  0  0  0  0  0  0  0  0  0  # atno 17343 bound_to 10162
  156.3735  130.3868  149.7157 LP  0  0  0  0  0  0  0  0  0  0  0  0  # atno 17370 bound_to 10713
  156.4563  130.7930  151.2951 LP  0  0  0  0  0  0  0  0  0  0  0  0  # atno 17371 bound_to 10713
  140.3521  134.2588  155.7197 LP  0  0  0  0  0  0  0  0  0  0  0  0  # atno 17394 bound_to 11000
  141.2038  133.7901  157.0318 LP  0  0  0  0  0  0  0  0  0  0  0  0  # atno 17395 bound_to 11000

$$$$
