AV-unprocessed.smi:2954|AV-procd|sdf|11300|dock4
  -GOLD-   2272016193D 1   1.00000     0.00000
 Structure written by MMmdl.
 43 45  0  0  0  0  0  0  0  0  2 V2000
  153.0405  138.4044  154.6317 C   0  0  0  0  0  0  0  0  0  0  0  0
  151.6797  137.7325  154.8657 C   0  0  1  0  0  0  0  0  0  0  0  0
  151.5950  137.2945  156.2553 N   0  0  0  0  0  0  0  0  0  0  0  0
  151.4131  136.0261  156.6407 C   0  0  0  0  0  0  0  0  0  0  0  0
  151.2943  135.0955  155.8481 O   0  0  0  0  0  0  0  0  0  0  0  0
  150.5626  138.6644  154.4917 C   0  0  0  0  0  0  0  0  0  0  0  0
  149.5754  138.4159  153.5826 N   0  3  0  0  0  0  0  0  0  0  0  0
  148.6930  139.4947  153.5309 C   0  0  0  0  0  0  0  0  0  0  0  0
  147.5487  139.7001  152.7665 C   0  0  0  0  0  0  0  0  0  0  0  0
  146.8669  140.9190  152.9638 C   0  0  0  0  0  0  0  0  0  0  0  0
  147.3263  141.8754  153.8927 C   0  0  0  0  0  0  0  0  0  0  0  0
  148.4878  141.6549  154.6620 C   0  0  0  0  0  0  0  0  0  0  0  0
  149.1585  140.4494  154.4573 C   0  0  0  0  0  0  0  0  0  0  0  0
  150.3161  139.9001  155.0197 N   0  0  0  0  0  0  0  0  0  0  0  0
  151.0521  140.6696  156.0353 C   0  0  0  0  0  0  0  0  0  0  0  0
  150.1706  141.0985  157.2192 C   0  0  0  0  0  0  0  0  0  0  0  0
  150.8109  142.1399  157.9448 O   0  0  0  0  0  0  0  0  0  0  0  0
  151.7916  141.7934  158.8505 C   0  0  0  0  0  0  0  0  0  0  0  0
  152.2394  140.4632  159.0567 C   0  0  0  0  0  0  0  0  0  0  0  0
  153.2536  140.1870  159.9939 C   0  0  0  0  0  0  0  0  0  0  0  0
  153.8323  141.2317  160.7369 C   0  0  0  0  0  0  0  0  0  0  0  0
  153.3938  142.5539  160.5426 C   0  0  0  0  0  0  0  0  0  0  0  0
  152.3795  142.8329  159.6055 C   0  0  0  0  0  0  0  0  0  0  0  0
  151.8469  144.4624  159.4009 Cl  0  0  0  0  0  0  0  0  0  0  0  0
  153.1652  138.6966  153.5889 H   0  0  0  0  0  0  0  0  0  0  0  0
  153.8601  137.7298  154.8818 H   0  0  0  0  0  0  0  0  0  0  0  0
  153.1503  139.3020  155.2415 H   0  0  0  0  0  0  0  0  0  0  0  0
  151.6184  136.8565  154.2169 H   0  0  0  0  0  0  0  0  0  0  0  0
  151.6738  138.0030  156.9702 H   0  0  0  0  0  0  0  0  0  0  0  0
  151.3806  135.9287  157.7365 H   0  0  0  0  0  0  0  0  0  0  0  0
  147.1931  138.9679  152.0564 H   0  0  0  0  0  0  0  0  0  0  0  0
  145.9729  141.1233  152.3926 H   0  0  0  0  0  0  0  0  0  0  0  0
  146.7764  142.7969  154.0188 H   0  0  0  0  0  0  0  0  0  0  0  0
  148.8293  142.3927  155.3724 H   0  0  0  0  0  0  0  0  0  0  0  0
  151.9054  140.0804  156.3732 H   0  0  0  0  0  0  0  0  0  0  0  0
  151.4617  141.5551  155.5501 H   0  0  0  0  0  0  0  0  0  0  0  0
  149.2048  141.4487  156.8533 H   0  0  0  0  0  0  0  0  0  0  0  0
  149.9898  140.2359  157.8617 H   0  0  0  0  0  0  0  0  0  0  0  0
  151.8244  139.6350  158.5033 H   0  0  0  0  0  0  0  0  0  0  0  0
  153.5893  139.1709  160.1412 H   0  0  0  0  0  0  0  0  0  0  0  0
  154.6102  141.0190  161.4554 H   0  0  0  0  0  0  0  0  0  0  0  0
  153.8359  143.3557  161.1157 H   0  0  0  0  0  0  0  0  0  0  0  0
  149.5141  137.5650  153.0382 H   0  0  0  0  0  0  0  0  0  0  0  0
  1  2  1  0  0  0  0
  1 25  1  0  0  0  0
  1 26  1  0  0  0  0
  1 27  1  0  0  0  0
  2  3  1  0  0  0  0
  2  6  1  0  0  0  0
  2 28  1  0  0  0  0
  3  4  1  0  0  0  0
  3 29  1  0  0  0  0
  4  5  2  0  0  0  0
  4 30  1  0  0  0  0
  6 14  1  0  0  0  0
  6  7  2  0  0  0  0
  7  8  1  0  0  0  0
  7 43  1  0  0  0  0
  8 13  2  0  0  0  0
  8  9  1  0  0  0  0
  9 10  2  0  0  0  0
  9 31  1  0  0  0  0
 10 11  1  0  0  0  0
 10 32  1  0  0  0  0
 11 12  2  0  0  0  0
 11 33  1  0  0  0  0
 12 13  1  0  0  0  0
 12 34  1  0  0  0  0
 13 14  1  0  0  0  0
 14 15  1  0  0  0  0
 15 16  1  0  0  0  0
 15 35  1  0  0  0  0
 15 36  1  0  0  0  0
 16 17  1  0  0  0  0
 16 37  1  0  0  0  0
 16 38  1  0  0  0  0
 17 18  1  0  0  0  0
 18 23  1  0  0  0  0
 18 19  2  0  0  0  0
 19 20  1  0  0  0  0
 19 39  1  0  0  0  0
 20 21  2  0  0  0  0
 20 40  1  0  0  0  0
 21 22  1  0  0  0  0
 21 41  1  0  0  0  0
 22 23  2  0  0  0  0
 22 42  1  0  0  0  0
 23 24  1  0  0  0  0
M  CHG  1   7   1
M  END
> <s_m_source_file>
AV-unprocessed.smi

> <i_m_source_file_index>
2954

> <i_lp_mmshare_version>
43012

> <i_f3d_flags>
0

> <s_epik_input>
Tz1bQ0hdW05IXVtDQEBIXShbQ0gzXSljKG4xKW4oYyhjMTIpW2NIXVtjSF1bY0hdW2NIXTIpW0NIMl1bQ0gyXU9jM1tjSF1bY0hdW2NIXVtjSF1jM0Ns

> <s_epik_cmdline>
J2VwaWtfcHl0aG9uJywgJy1waCcsICc3LjAnLCAnLXRuJywgJzgnLCAnLW1hJywgJzIwMCcsICctbWV0YWxfYmluZGluZycsICctaW1hZScsICc8aW5maWxlLm1hZT4nLCAnLW9tYWUnLCAnPG91dGZpbGUubWFlPic=

> <r_lp_tautomer_probability>
1

> <r_epik_Ionization_Penalty>
1.18508

> <r_epik_Ionization_Penalty_Charging>
1.18508

> <r_epik_Ionization_Penalty_Neutral>
5.5802e-08

> <r_epik_State_Penalty>
1.24934

> <r_epik_Charging_Adjusted_Penalty>
2.43443

> <i_epik_Tot_Q>
1

> <i_epik_Tot_abs_Q>
1

> <r_epik_Metal_State_Penalty>
1.32564

> <b_epik_Metal_Only>
0

> <s_lp_Force_Field>
OPLS_2005

> <r_lp_Energy>
18.4095

> <b_lp_Chiralities_Consistent>
1

> <s_lp_Variant>
AV-unprocessed.smi:2954-4

> <Gold.Version>
5.8.1

> <Gold.Id.Protein>
6NUR|6NUR_protein|mol2

> <Gold.PLP.Fitness>
61.4970

> <Gold.PLP.PLP>
-52.9217

> <Gold.PLP.part.hbond>
-3.0000

> <Gold.PLP.part.metal>
0.0000

> <Gold.PLP.part.buried>
2.0105

> <Gold.PLP.part.nonpolar>
-51.8255

> <Gold.PLP.part.repulsive>
0.2650

> <Gold.PLP.ligand.clash>
0.0000

> <Gold.PLP.ligand.torsion>
0.2338

> <Gold.PLP.Chemscore.Hbond>
3.0000

> <Gold.PLP.Chemscore.CHOScore>
0.0000

> <Gold.PLP.Chemscore.Metal>
0.0000

> <Gold.Chemscore.Hbonds>
donor molecule, donor type, donor heavy atom, donor atom, acceptor molecule, acceptor atom, score
      L1  H     7    43       P1  7948  2.00
      P1  H 10752 10763       L1     5  0.78

> <Gold.PLP.Chemscore.Internal.Correction>
0.0429

> <Gold.Rescore>
     Score         DG    S(hbond)    S(metal)    S(lipo)     H(rot)  DE(clash)    DE(int)     intcor
     20.37     -20.98       1.67        0.00     136.23       2.35       0.25       0.36       ----

> <Gold.Chemscore.Fitness>
20.3677

> <Gold.Chemscore.DG>
-20.9790

> <Gold.Chemscore.ZeroCoef>
-5.4800

> <Gold.Chemscore.Hbond>
1.6670

> <Gold.Chemscore.Metal>
0.0000

> <Gold.Chemscore.Lipo>
136.2291

> <Gold.Chemscore.Internal_Hbond>
0.0000

> <Gold.Chemscore.DEClash>
0.2488

> <Gold.Chemscore.DEInternal>
0.3625

> <Gold.Chemscore.Rot>
2.3467

> <Gold.Chemscore.Internal.Correction>
   9.000000E+99

> <Gold.Chemscore.Hbonds>
donor molecule, donor type, donor heavy atom, donor atom, acceptor molecule, acceptor atom, score
      L1  H     7    43       P1  7948  0.85
      P1  H 10752 10763       L1     5  0.10

> <Gold.Chemscore.Hbond.Weighted>
-5.5679

> <Gold.Chemscore.Metal.Weighted>
-0.0000

> <Gold.Chemscore.Lipo.Weighted>
-15.9388

> <Gold.Chemscore.Internal_Hbond.Weighted>
0.0000

> <Gold.Chemscore.DEClash.Weighted>
0.2488

> <Gold.Chemscore.DEInternal.Weighted>
0.3625

> <Gold.Chemscore.Rot.Weighted>
6.0077

> <Gold.Chemscore.Internal.Correction.Weighted>
   9.000000E+99

> <Gold.Protein.RotatedTorsions>
[ 6907 6896 6895 6894 ] final  -37.35 input  -60.11 | X-H torsion
[ 7974 7965 7964 7962 ] final   44.00 input  175.53 | X-H torsion
[ 8008 7997 7996 7995 ] final   64.85 input   59.86 | X-H torsion
[ 10167 10162 10161 10158 ] final  -46.36 input  -65.29 | X-H torsion
[ 10718 10713 10712 10709 ] final    6.39 input   66.30 | X-H torsion
[ 10763 10752 10751 10750 ] final   73.61 input  -60.55 | X-H torsion
[ 11005 11000 10999 10996 ] final  175.97 input  -57.11 | X-H torsion

> <Gold.Protein.ActiveResidues>
 VAL166  LYS551  ARG553  GLY616  TRP617  ASP618  TYR619  PRO620  LYS621  CYS622 
 ASP623  PHE694  ASN695  SER759  ASP760  ASP761  ALA762  ILE779  LEU786  VAL792 
 PHE793  MET794  SER795  GLU796  ALA797  LYS798  CYS799  TRP800  GLU811  SER814 

> <Gold.Protein.RotatedAtoms>
  151.0158  134.9432  159.8032 H   0  0  0  0  0  0  0  0  0  0  0  0  # atno 6907 bound_to 6896
  152.5313  134.2968  159.9073 H   0  0  0  0  0  0  0  0  0  0  0  0  # atno 6908 bound_to 6896
  151.2975  133.4095  159.2671 H   0  0  0  0  0  0  0  0  0  0  0  0  # atno 6909 bound_to 6896
  146.0607  139.5123  142.9660 H   0  0  0  0  0  0  0  0  0  0  0  0  # atno 7974 bound_to 7965
  155.6525  140.3497  155.4753 H   0  0  0  0  0  0  0  0  0  0  0  0  # atno 8008 bound_to 7997
  155.9836  140.1179  157.0727 H   0  0  0  0  0  0  0  0  0  0  0  0  # atno 8009 bound_to 7997
  154.4198  140.1133  156.5454 H   0  0  0  0  0  0  0  0  0  0  0  0  # atno 8010 bound_to 7997
  140.6820  143.2834  151.3772 H   0  0  0  0  0  0  0  0  0  0  0  0  # atno 10167 bound_to 10162
  156.9214  130.5792  149.5648 H   0  0  0  0  0  0  0  0  0  0  0  0  # atno 10718 bound_to 10713
  153.0532  135.5056  154.7919 H   0  0  0  0  0  0  0  0  0  0  0  0  # atno 10763 bound_to 10752
  154.6765  135.2961  154.9674 H   0  0  0  0  0  0  0  0  0  0  0  0  # atno 10764 bound_to 10752
  154.0475  135.6708  153.4849 H   0  0  0  0  0  0  0  0  0  0  0  0  # atno 10765 bound_to 10752
  140.3680  134.7055  157.4374 H   0  0  0  0  0  0  0  0  0  0  0  0  # atno 11005 bound_to 11000
  145.6566  141.0250  143.1731 LP  0  0  0  0  0  0  0  0  0  0  0  0  # atno 17320 bound_to 7965
  144.7173  139.8152  143.7394 LP  0  0  0  0  0  0  0  0  0  0  0  0  # atno 17321 bound_to 7965
  139.6150  144.1021  152.2337 LP  0  0  0  0  0  0  0  0  0  0  0  0  # atno 17342 bound_to 10162
  140.0447  144.5980  150.7383 LP  0  0  0  0  0  0  0  0  0  0  0  0  # atno 17343 bound_to 10162
  156.0489  130.5561  150.8944 LP  0  0  0  0  0  0  0  0  0  0  0  0  # atno 17370 bound_to 10713
  157.5905  131.0944  150.9126 LP  0  0  0  0  0  0  0  0  0  0  0  0  # atno 17371 bound_to 10713
  140.0574  134.6044  155.8789 LP  0  0  0  0  0  0  0  0  0  0  0  0  # atno 17394 bound_to 11000
  141.1963  133.6591  156.5687 LP  0  0  0  0  0  0  0  0  0  0  0  0  # atno 17395 bound_to 11000

$$$$
