AV-unprocessed.smi:1699|AV-procd|sdf|6815|dock2
  -GOLD-   22720 7593D 1   1.00000     0.00000
 Structure written by MMmdl.
 37 38  0  0  0  0  0  0  0  0  1 V2000
  147.6671  132.9538  152.3774 C   0  0  0  0  0  0  0  0  0  0  0  0
  146.3083  132.8828  151.6996 C   0  0  0  0  0  0  0  0  0  0  0  0
  145.7291  131.6213  151.4455 C   0  0  0  0  0  0  0  0  0  0  0  0
  144.4723  131.5572  150.8201 C   0  0  0  0  0  0  0  0  0  0  0  0
  143.8445  132.7654  150.4720 C   0  0  0  0  0  0  0  0  0  0  0  0
  144.3910  133.9749  150.7099 N   0  0  0  0  0  0  0  0  0  0  0  0
  145.6035  134.0547  151.3138 C   0  0  0  0  0  0  0  0  0  0  0  0
  146.2391  135.2960  151.6001 N   0  0  0  0  0  0  0  0  0  0  0  0
  145.6737  136.4743  151.9165 C   0  0  0  0  0  0  0  0  0  0  0  0
  144.4635  136.6883  151.9867 O   0  0  0  0  0  0  0  0  0  0  0  0
  146.6084  137.4068  152.1524 N   0  0  0  0  0  0  0  0  0  0  0  0
  146.3573  138.7947  152.5373 C   0  0  2  0  0  0  0  0  0  0  0  0
  146.7902  139.7229  151.3926 C   0  0  0  0  0  0  0  0  0  0  0  0
  147.0937  139.1144  153.8528 C   0  0  2  0  0  0  0  0  0  0  0  0
  146.9805  140.5720  154.3073 C   0  0  0  0  0  0  0  0  0  0  0  0
  148.2210  140.7275  155.1554 C   0  0  0  0  0  0  0  0  0  0  0  0
  149.2380  139.9125  154.3640 C   0  0  0  0  0  0  0  0  0  0  0  0
  148.4950  138.8843  153.7141 O   0  0  0  0  0  0  0  0  0  0  0  0
  148.0430  131.9592  152.6196 H   0  0  0  0  0  0  0  0  0  0  0  0
  147.6025  133.5217  153.3060 H   0  0  0  0  0  0  0  0  0  0  0  0
  148.3937  133.4371  151.7237 H   0  0  0  0  0  0  0  0  0  0  0  0
  146.2393  130.7113  151.7256 H   0  0  0  0  0  0  0  0  0  0  0  0
  144.0020  130.6074  150.6130 H   0  0  0  0  0  0  0  0  0  0  0  0
  142.8782  132.7618  149.9900 H   0  0  0  0  0  0  0  0  0  0  0  0
  147.2476  135.2795  151.5715 H   0  0  0  0  0  0  0  0  0  0  0  0
  147.5765  137.1345  152.0668 H   0  0  0  0  0  0  0  0  0  0  0  0
  145.2904  138.9478  152.7092 H   0  0  0  0  0  0  0  0  0  0  0  0
  146.5979  140.7675  151.6386 H   0  0  0  0  0  0  0  0  0  0  0  0
  146.2436  139.4975  150.4763 H   0  0  0  0  0  0  0  0  0  0  0  0
  147.8551  139.6225  151.1800 H   0  0  0  0  0  0  0  0  0  0  0  0
  146.7321  138.4669  154.6535 H   0  0  0  0  0  0  0  0  0  0  0  0
  147.0279  141.2474  153.4516 H   0  0  0  0  0  0  0  0  0  0  0  0
  146.0605  140.7782  154.8549 H   0  0  0  0  0  0  0  0  0  0  0  0
  148.5211  141.7666  155.2938 H   0  0  0  0  0  0  0  0  0  0  0  0
  148.0613  140.2815  156.1380 H   0  0  0  0  0  0  0  0  0  0  0  0
  149.7107  140.5313  153.6004 H   0  0  0  0  0  0  0  0  0  0  0  0
  150.0225  139.4989  154.9980 H   0  0  0  0  0  0  0  0  0  0  0  0
  1  2  1  0  0  0  0
  1 19  1  0  0  0  0
  1 20  1  0  0  0  0
  1 21  1  0  0  0  0
  2  7  1  0  0  0  0
  2  3  2  0  0  0  0
  3  4  1  0  0  0  0
  3 22  1  0  0  0  0
  4  5  2  0  0  0  0
  4 23  1  0  0  0  0
  5  6  1  0  0  0  0
  5 24  1  0  0  0  0
  6  7  2  0  0  0  0
  7  8  1  0  0  0  0
  8  9  1  0  0  0  0
  8 25  1  0  0  0  0
  9 10  2  0  0  0  0
  9 11  1  0  0  0  0
 11 12  1  0  0  0  0
 11 26  1  0  0  0  0
 12 13  1  0  0  0  0
 12 14  1  0  0  0  0
 12 27  1  0  0  0  0
 13 28  1  0  0  0  0
 13 29  1  0  0  0  0
 13 30  1  0  0  0  0
 14 18  1  0  0  0  0
 14 15  1  0  0  0  0
 14 31  1  0  0  0  0
 15 16  1  0  0  0  0
 15 32  1  0  0  0  0
 15 33  1  0  0  0  0
 16 17  1  0  0  0  0
 16 34  1  0  0  0  0
 16 35  1  0  0  0  0
 17 18  1  0  0  0  0
 17 36  1  0  0  0  0
 17 37  1  0  0  0  0
M  END
> <s_m_source_file>
AV-unprocessed.smi

> <i_m_source_file_index>
1699

> <i_lp_mmshare_version>
43012

> <i_f3d_flags>
0

> <s_epik_input>
W0NIM11jMVtjSF1bY0hdW2NIXW5jMVtOSF1DKD1PKVtOSF1bQ0BIXShbQ0gzXSlbQ0BASF0yW0NIMl1bQ0gyXVtDSDJdTzI=

> <s_epik_cmdline>
J2VwaWtfcHl0aG9uJywgJy1waCcsICc3LjAnLCAnLXRuJywgJzgnLCAnLW1hJywgJzIwMCcsICctbWV0YWxfYmluZGluZycsICctaW1hZScsICc8aW5maWxlLm1hZT4nLCAnLW9tYWUnLCAnPG91dGZpbGUubWFlPic=

> <r_lp_tautomer_probability>
1

> <r_epik_Ionization_Penalty>
5.52788e-05

> <r_epik_Ionization_Penalty_Charging>
0

> <r_epik_Ionization_Penalty_Neutral>
5.52788e-05

> <r_epik_State_Penalty>
-0

> <r_epik_Charging_Adjusted_Penalty>
0

> <i_epik_Tot_Q>
0

> <i_epik_Tot_abs_Q>
0

> <r_epik_Metal_State_Penalty>
-0

> <b_epik_Metal_Only>
0

> <s_lp_Force_Field>
OPLS_2005

> <r_lp_Energy>
20.4349

> <b_lp_Chiralities_Consistent>
1

> <s_lp_Variant>
AV-unprocessed.smi:1699-1

> <Gold.Version>
5.8.1

> <Gold.Id.Protein>
6NUR|6NUR_protein|mol2

> <Gold.PLP.Fitness>
38.7094

> <Gold.PLP.PLP>
-30.2598

> <Gold.PLP.part.hbond>
-2.0000

> <Gold.PLP.part.metal>
0.0000

> <Gold.PLP.part.buried>
-2.4360

> <Gold.PLP.part.nonpolar>
-28.0352

> <Gold.PLP.part.repulsive>
2.4750

> <Gold.PLP.ligand.clash>
0.0000

> <Gold.PLP.ligand.torsion>
0.2680

> <Gold.PLP.Chemscore.Hbond>
1.9920

> <Gold.PLP.Chemscore.CHOScore>
0.9988

> <Gold.PLP.Chemscore.Metal>
0.0000

> <Gold.Chemscore.Hbonds>
donor molecule, donor type, donor heavy atom, donor atom, acceptor molecule, acceptor atom, score
      L1  H     8    25       P1  7948  0.99
      L1  H    11    26       P1  7948  1.00
      L1  C     5    24       P1 10186  0.98

> <Gold.PLP.Chemscore.Internal.Correction>
0.0132

> <Gold.Rescore>
     Score         DG    S(hbond)    S(metal)    S(lipo)     H(rot)  DE(clash)    DE(int)     intcor
     15.61     -17.79       1.94        0.00      76.54       1.22       0.88       1.30       ----

> <Gold.Chemscore.Fitness>
15.6067

> <Gold.Chemscore.DG>
-17.7864

> <Gold.Chemscore.ZeroCoef>
-5.4800

> <Gold.Chemscore.Hbond>
1.9383

> <Gold.Chemscore.Metal>
0.0000

> <Gold.Chemscore.Lipo>
76.5438

> <Gold.Chemscore.Internal_Hbond>
0.0000

> <Gold.Chemscore.DEClash>
0.8763

> <Gold.Chemscore.DEInternal>
1.3034

> <Gold.Chemscore.Rot>
1.2200

> <Gold.Chemscore.Internal.Correction>
   9.000000E+99

> <Gold.Chemscore.Hbonds>
donor molecule, donor type, donor heavy atom, donor atom, acceptor molecule, acceptor atom, score
      L1  H     8    25       P1  7948  0.87
      L1  H    11    26       P1  7948  1.00

> <Gold.Chemscore.Hbond.Weighted>
-6.4739

> <Gold.Chemscore.Metal.Weighted>
-0.0000

> <Gold.Chemscore.Lipo.Weighted>
-8.9556

> <Gold.Chemscore.Internal_Hbond.Weighted>
0.0000

> <Gold.Chemscore.DEClash.Weighted>
0.8763

> <Gold.Chemscore.DEInternal.Weighted>
1.3034

> <Gold.Chemscore.Rot.Weighted>
3.1232

> <Gold.Chemscore.Internal.Correction.Weighted>
   9.000000E+99

> <Gold.Protein.RotatedTorsions>
[ 6907 6896 6895 6894 ] final   30.92 input  -60.11 | X-H torsion
[ 7974 7965 7964 7962 ] final   13.13 input  175.53 | X-H torsion
[ 8008 7997 7996 7995 ] final -169.73 input   59.86 | X-H torsion
[ 10167 10162 10161 10158 ] final -151.49 input  -65.29 | X-H torsion
[ 10718 10713 10712 10709 ] final   22.57 input   66.30 | X-H torsion
[ 10763 10752 10751 10750 ] final   37.49 input  -60.55 | X-H torsion
[ 11005 11000 10999 10996 ] final   74.51 input  -57.11 | X-H torsion

> <Gold.Protein.ActiveResidues>
 VAL166  LYS551  ARG553  GLY616  TRP617  ASP618  TYR619  PRO620  LYS621  CYS622 
 ASP623  PHE694  ASN695  SER759  ASP760  ASP761  ALA762  ILE779  LEU786  VAL792 
 PHE793  MET794  SER795  GLU796  ALA797  LYS798  CYS799  TRP800  GLU811  SER814 

> <Gold.Protein.RotatedAtoms>
  152.0528  134.9643  160.0574 H   0  0  0  0  0  0  0  0  0  0  0  0  # atno 6907 bound_to 6896
  152.1037  133.4258  159.4607 H   0  0  0  0  0  0  0  0  0  0  0  0  # atno 6908 bound_to 6896
  150.6840  134.2649  159.4608 H   0  0  0  0  0  0  0  0  0  0  0  0  # atno 6909 bound_to 6896
  146.2336  139.9234  142.8506 H   0  0  0  0  0  0  0  0  0  0  0  0  # atno 7974 bound_to 7965
  155.9089  140.1054  157.1294 H   0  0  0  0  0  0  0  0  0  0  0  0  # atno 8008 bound_to 7997
  154.4036  140.1278  156.4596 H   0  0  0  0  0  0  0  0  0  0  0  0  # atno 8009 bound_to 7997
  155.7334  140.3468  155.5072 H   0  0  0  0  0  0  0  0  0  0  0  0  # atno 8010 bound_to 7997
  139.7263  143.8878  152.2520 H   0  0  0  0  0  0  0  0  0  0  0  0  # atno 10167 bound_to 10162
  157.1542  130.6688  149.6022 H   0  0  0  0  0  0  0  0  0  0  0  0  # atno 10718 bound_to 10713
  153.0036  135.6276  154.2153 H   0  0  0  0  0  0  0  0  0  0  0  0  # atno 10763 bound_to 10752
  154.1896  135.2809  155.3028 H   0  0  0  0  0  0  0  0  0  0  0  0  # atno 10764 bound_to 10752
  154.5770  135.5659  153.7208 H   0  0  0  0  0  0  0  0  0  0  0  0  # atno 10765 bound_to 10752
  139.9387  134.7439  156.1157 H   0  0  0  0  0  0  0  0  0  0  0  0  # atno 11005 bound_to 11000
  145.2114  140.9897  143.4098 LP  0  0  0  0  0  0  0  0  0  0  0  0  # atno 17320 bound_to 7965
  144.9688  139.3902  143.6319 LP  0  0  0  0  0  0  0  0  0  0  0  0  # atno 17321 bound_to 7965
  139.8788  144.7029  150.8901 LP  0  0  0  0  0  0  0  0  0  0  0  0  # atno 17342 bound_to 10162
  140.7763  143.3678  151.1706 LP  0  0  0  0  0  0  0  0  0  0  0  0  # atno 17343 bound_to 10162
  155.9765  130.4734  150.6532 LP  0  0  0  0  0  0  0  0  0  0  0  0  # atno 17370 bound_to 10713
  157.4193  131.0834  151.1147 LP  0  0  0  0  0  0  0  0  0  0  0  0  # atno 17371 bound_to 10713
  141.1013  133.6676  156.2761 LP  0  0  0  0  0  0  0  0  0  0  0  0  # atno 17394 bound_to 11000
  140.6007  134.5558  157.5517 LP  0  0  0  0  0  0  0  0  0  0  0  0  # atno 17395 bound_to 11000

$$$$
