AV-unprocessed.smi:2097|AV-procd|sdf|8563|dock6
  -GOLD-   2272011293D 1   1.00000     0.00000
 Structure written by MMmdl.
 41 42  0  0  0  0  0  0  0  0  1 V2000
  156.7072  133.8437  161.4534 C   0  0  0  0  0  0  0  0  0  0  0  0
  155.7368  134.6867  162.2942 C   0  0  2  0  0  0  0  0  0  0  0  0
  154.8083  133.7915  162.9020 O   0  0  0  0  0  0  0  0  0  0  0  0
  155.3790  132.6586  163.5499 C   0  0  0  0  0  0  0  0  0  0  0  0
  154.5442  132.3073  164.7872 C   0  0  0  0  0  0  0  0  0  0  0  0
  154.3318  133.4121  165.5014 F   0  0  0  0  0  0  0  0  0  0  0  0
  153.3669  131.8019  164.4206 F   0  0  0  0  0  0  0  0  0  0  0  0
  155.1941  131.4255  165.5466 F   0  0  0  0  0  0  0  0  0  0  0  0
  154.9980  135.7206  161.4283 C   0  0  0  0  0  0  0  0  0  0  0  0
  154.2873  135.3400  160.4984 O   0  0  0  0  0  0  0  0  0  0  0  0
  155.1605  137.0071  161.7892 N   0  0  0  0  0  0  0  0  0  0  0  0
  154.5921  138.1699  161.2029 C   0  0  0  0  0  0  0  0  0  0  0  0
  153.7048  138.0005  160.1227 C   0  0  0  0  0  0  0  0  0  0  0  0
  153.1189  139.1338  159.5280 C   0  0  0  0  0  0  0  0  0  0  0  0
  153.4291  140.4175  160.0352 C   0  0  0  0  0  0  0  0  0  0  0  0
  152.8614  141.5696  159.4483 N   0  0  0  0  0  0  0  0  0  0  0  0
  153.0525  142.8144  160.1890 C   0  0  0  0  0  0  0  0  0  0  0  0
  152.6658  144.0222  159.3183 C   0  0  0  0  0  0  0  0  0  0  0  0
  151.3353  143.8642  158.8371 O   0  0  0  0  0  0  0  0  0  0  0  0
  151.2017  142.7038  158.0233 C   0  0  0  0  0  0  0  0  0  0  0  0
  151.5324  141.4503  158.8509 C   0  0  0  0  0  0  0  0  0  0  0  0
  154.2631  140.5777  161.0920 N   0  0  0  0  0  0  0  0  0  0  0  0
  154.8254  139.4890  161.6580 C   0  0  0  0  0  0  0  0  0  0  0  0
  157.4422  134.4712  160.9478 H   0  0  0  0  0  0  0  0  0  0  0  0
  156.1817  133.2633  160.6939 H   0  0  0  0  0  0  0  0  0  0  0  0
  157.2528  133.1411  162.0834 H   0  0  0  0  0  0  0  0  0  0  0  0
  156.3109  135.1944  163.0719 H   0  0  0  0  0  0  0  0  0  0  0  0
  155.3987  131.8092  162.8657 H   0  0  0  0  0  0  0  0  0  0  0  0
  156.4076  132.8581  163.8520 H   0  0  0  0  0  0  0  0  0  0  0  0
  155.7053  137.1650  162.6244 H   0  0  0  0  0  0  0  0  0  0  0  0
  153.4758  137.0138  159.7475 H   0  0  0  0  0  0  0  0  0  0  0  0
  152.4329  139.0047  158.7044 H   0  0  0  0  0  0  0  0  0  0  0  0
  152.4321  142.7879  161.0857 H   0  0  0  0  0  0  0  0  0  0  0  0
  154.0828  142.9338  160.5209 H   0  0  0  0  0  0  0  0  0  0  0  0
  152.7249  144.9399  159.9033 H   0  0  0  0  0  0  0  0  0  0  0  0
  153.3561  144.1343  158.4805 H   0  0  0  0  0  0  0  0  0  0  0  0
  150.1795  142.6472  157.6494 H   0  0  0  0  0  0  0  0  0  0  0  0
  151.8556  142.7792  157.1530 H   0  0  0  0  0  0  0  0  0  0  0  0
  151.4847  140.5709  158.2074 H   0  0  0  0  0  0  0  0  0  0  0  0
  150.7913  141.3186  159.6406 H   0  0  0  0  0  0  0  0  0  0  0  0
  155.4584  139.6984  162.5061 H   0  0  0  0  0  0  0  0  0  0  0  0
  1  2  1  0  0  0  0
  1 24  1  0  0  0  0
  1 25  1  0  0  0  0
  1 26  1  0  0  0  0
  2  3  1  0  0  0  0
  2  9  1  0  0  0  0
  2 27  1  0  0  0  0
  3  4  1  0  0  0  0
  4  5  1  0  0  0  0
  4 28  1  0  0  0  0
  4 29  1  0  0  0  0
  5  6  1  0  0  0  0
  5  7  1  0  0  0  0
  5  8  1  0  0  0  0
  9 10  2  0  0  0  0
  9 11  1  0  0  0  0
 11 12  1  0  0  0  0
 11 30  1  0  0  0  0
 12 23  1  0  0  0  0
 12 13  2  0  0  0  0
 13 14  1  0  0  0  0
 13 31  1  0  0  0  0
 14 15  2  0  0  0  0
 14 32  1  0  0  0  0
 15 16  1  0  0  0  0
 15 22  1  0  0  0  0
 16 21  1  0  0  0  0
 16 17  1  0  0  0  0
 17 18  1  0  0  0  0
 17 33  1  0  0  0  0
 17 34  1  0  0  0  0
 18 19  1  0  0  0  0
 18 35  1  0  0  0  0
 18 36  1  0  0  0  0
 19 20  1  0  0  0  0
 20 21  1  0  0  0  0
 20 37  1  0  0  0  0
 20 38  1  0  0  0  0
 21 39  1  0  0  0  0
 21 40  1  0  0  0  0
 22 23  2  0  0  0  0
 23 41  1  0  0  0  0
M  END
> <s_m_source_file>
AV-unprocessed.smi

> <i_m_source_file_index>
2097

> <i_lp_mmshare_version>
43012

> <i_f3d_flags>
0

> <s_epik_input>
RkMoRikoRilbQ0gyXU9bQ0BASF0oW0NIM10pQyg9TylbTkhdYzFbY0hdW2NIXWMobltjSF0xKU4yW0NIMl1bQ0gyXU9bQ0gyXVtDSDJdMg==

> <s_epik_cmdline>
J2VwaWtfcHl0aG9uJywgJy1waCcsICc3LjAnLCAnLXRuJywgJzgnLCAnLW1hJywgJzIwMCcsICctbWV0YWxfYmluZGluZycsICctaW1hZScsICc8aW5maWxlLm1hZT4nLCAnLW9tYWUnLCAnPG91dGZpbGUubWFlPic=

> <r_lp_tautomer_probability>
1

> <r_epik_Ionization_Penalty>
0.000443452

> <r_epik_Ionization_Penalty_Charging>
0

> <r_epik_Ionization_Penalty_Neutral>
0.000443452

> <r_epik_State_Penalty>
0.00027288

> <r_epik_Charging_Adjusted_Penalty>
0.00027288

> <i_epik_Tot_Q>
0

> <i_epik_Tot_abs_Q>
0

> <r_epik_Metal_State_Penalty>
-0

> <b_epik_Metal_Only>
0

> <s_lp_Force_Field>
OPLS_2005

> <r_lp_Energy>
25.2007

> <b_lp_Chiralities_Consistent>
1

> <s_lp_Variant>
AV-unprocessed.smi:2097-1

> <Gold.Version>
5.8.1

> <Gold.Id.Protein>
6NUR|6NUR_protein|mol2

> <Gold.PLP.Fitness>
40.2321

> <Gold.PLP.PLP>
-38.6101

> <Gold.PLP.part.hbond>
-1.0000

> <Gold.PLP.part.metal>
0.0000

> <Gold.PLP.part.buried>
-6.2675

> <Gold.PLP.part.nonpolar>
-31.5985

> <Gold.PLP.part.repulsive>
0.0975

> <Gold.PLP.ligand.clash>
0.0254

> <Gold.PLP.ligand.torsion>
0.8651

> <Gold.PLP.Chemscore.Hbond>
1.0000

> <Gold.PLP.Chemscore.CHOScore>
0.0000

> <Gold.PLP.Chemscore.Metal>
0.0000

> <Gold.Chemscore.Hbonds>
donor molecule, donor type, donor heavy atom, donor atom, acceptor molecule, acceptor atom, score
      P1  H  6896  6907       L1    10  1.00

> <Gold.PLP.Chemscore.Internal.Correction>
0.3775

> <Gold.Rescore>
     Score         DG    S(hbond)    S(metal)    S(lipo)     H(rot)  DE(clash)    DE(int)     intcor
     11.36     -13.75       1.00        0.00      84.93       1.95       0.00       2.39       ----

> <Gold.Chemscore.Fitness>
11.3562

> <Gold.Chemscore.DG>
-13.7505

> <Gold.Chemscore.ZeroCoef>
-5.4800

> <Gold.Chemscore.Hbond>
0.9952

> <Gold.Chemscore.Metal>
0.0000

> <Gold.Chemscore.Lipo>
84.9252

> <Gold.Chemscore.Internal_Hbond>
0.0000

> <Gold.Chemscore.DEClash>
0.0043

> <Gold.Chemscore.DEInternal>
2.3900

> <Gold.Chemscore.Rot>
1.9491

> <Gold.Chemscore.Internal.Correction>
   9.000000E+99

> <Gold.Chemscore.Hbonds>
donor molecule, donor type, donor heavy atom, donor atom, acceptor molecule, acceptor atom, score
      P1  H  6896  6907       L1    10  0.95

> <Gold.Chemscore.Hbond.Weighted>
-3.3240

> <Gold.Chemscore.Metal.Weighted>
-0.0000

> <Gold.Chemscore.Lipo.Weighted>
-9.9363

> <Gold.Chemscore.Internal_Hbond.Weighted>
0.0000

> <Gold.Chemscore.DEClash.Weighted>
0.0043

> <Gold.Chemscore.DEInternal.Weighted>
2.3900

> <Gold.Chemscore.Rot.Weighted>
4.9897

> <Gold.Chemscore.Internal.Correction.Weighted>
   9.000000E+99

> <Gold.Protein.RotatedTorsions>
[ 6907 6896 6895 6894 ] final   60.05 input  -60.11 | X-H torsion
[ 7974 7965 7964 7962 ] final -165.32 input  175.53 | X-H torsion
[ 8008 7997 7996 7995 ] final -102.13 input   59.86 | X-H torsion
[ 10167 10162 10161 10158 ] final  -77.70 input  -65.29 | X-H torsion
[ 10718 10713 10712 10709 ] final  177.98 input   66.30 | X-H torsion
[ 10763 10752 10751 10750 ] final -129.15 input  -60.55 | X-H torsion
[ 11005 11000 10999 10996 ] final  142.83 input  -57.11 | X-H torsion

> <Gold.Protein.ActiveResidues>
 VAL166  LYS551  ARG553  GLY616  TRP617  ASP618  TYR619  PRO620  LYS621  CYS622 
 ASP623  PHE694  ASN695  SER759  ASP760  ASP761  ALA762  ILE779  LEU786  VAL792 
 PHE793  MET794  SER795  GLU796  ALA797  LYS798  CYS799  TRP800  GLU811  SER814 

> <Gold.Protein.RotatedAtoms>
  152.3969  134.6351  160.0085 H   0  0  0  0  0  0  0  0  0  0  0  0  # atno 6907 bound_to 6896
  151.6568  133.3313  159.3172 H   0  0  0  0  0  0  0  0  0  0  0  0  # atno 6908 bound_to 6896
  150.7875  134.6915  159.6544 H   0  0  0  0  0  0  0  0  0  0  0  0  # atno 6909 bound_to 6896
  144.7273  140.2831  143.6232 H   0  0  0  0  0  0  0  0  0  0  0  0  # atno 7974 bound_to 7965
  154.8523  140.0430  157.1612 H   0  0  0  0  0  0  0  0  0  0  0  0  # atno 8008 bound_to 7997
  154.8930  140.2989  155.5339 H   0  0  0  0  0  0  0  0  0  0  0  0  # atno 8009 bound_to 7997
  156.2996  140.2390  156.3948 H   0  0  0  0  0  0  0  0  0  0  0  0  # atno 8010 bound_to 7997
  140.4747  143.2417  151.8151 H   0  0  0  0  0  0  0  0  0  0  0  0  # atno 10167 bound_to 10162
  156.8973  130.9867  151.3041 H   0  0  0  0  0  0  0  0  0  0  0  0  # atno 10718 bound_to 10713
  154.8757  135.3905  154.3873 H   0  0  0  0  0  0  0  0  0  0  0  0  # atno 10763 bound_to 10752
  153.4613  135.7029  153.6054 H   0  0  0  0  0  0  0  0  0  0  0  0  # atno 10764 bound_to 10752
  153.4551  135.3825  155.2274 H   0  0  0  0  0  0  0  0  0  0  0  0  # atno 10765 bound_to 10752
  140.0507  134.9257  157.1012 H   0  0  0  0  0  0  0  0  0  0  0  0  # atno 11005 bound_to 11000
  145.7929  139.1934  143.2092 LP  0  0  0  0  0  0  0  0  0  0  0  0  # atno 17320 bound_to 7965
  146.0741  140.7837  142.9674 LP  0  0  0  0  0  0  0  0  0  0  0  0  # atno 17321 bound_to 7965
  139.4824  144.4848  151.9261 LP  0  0  0  0  0  0  0  0  0  0  0  0  # atno 17342 bound_to 10162
  140.3933  144.2587  150.5898 LP  0  0  0  0  0  0  0  0  0  0  0  0  # atno 17343 bound_to 10162
  157.6047  130.8538  149.8857 LP  0  0  0  0  0  0  0  0  0  0  0  0  # atno 17370 bound_to 10713
  156.0599  130.3701  150.1006 LP  0  0  0  0  0  0  0  0  0  0  0  0  # atno 17371 bound_to 10713
  140.3922  134.2173  155.7166 LP  0  0  0  0  0  0  0  0  0  0  0  0  # atno 17394 bound_to 11000
  141.1929  133.8163  157.0821 LP  0  0  0  0  0  0  0  0  0  0  0  0  # atno 17395 bound_to 11000

$$$$
