AV-unprocessed.smi:35|AV-procd|sdf|273|dock2
  -GOLD-   2262016 43D 1   1.00000     0.00000
 Structure written by MMmdl.
 28 29  0  0  0  0  0  0  0  0  2 V2000
  140.0049  135.7024  154.2957 O   0  0  0  0  0  0  0  0  0  0  0  0
  141.2001  135.9442  154.1367 C   0  0  0  0  0  0  0  0  0  0  0  0
  142.1780  135.0156  154.3460 N   0  5  0  0  0  0  0  0  0  0  0  0
  143.5046  135.2898  154.1719 C   0  0  0  0  0  0  0  0  0  0  0  0
  144.3921  134.4512  154.3284 O   0  0  0  0  0  0  0  0  0  0  0  0
  143.8880  136.6001  153.7765 N   0  0  0  0  0  0  0  0  0  0  0  0
  145.3532  136.9228  153.5793 C   0  0  2  0  0  0  0  0  0  0  0  0
  145.6289  138.1433  154.1901 O   0  0  0  0  0  0  0  0  0  0  0  0
  146.7111  138.7523  153.5047 C   0  0  2  0  0  0  0  0  0  0  0  0
  146.7454  140.2579  153.8098 C   0  0  0  0  0  0  0  0  0  0  0  0
  147.9965  140.8006  153.4443 O   0  0  0  0  0  0  0  0  0  0  0  0
  146.4008  138.4332  152.0379 C   0  0  1  0  0  0  0  0  0  0  0  0
  147.5962  138.4065  151.2826 O   0  0  0  0  0  0  0  0  0  0  0  0
  145.7650  137.0459  152.0947 C   0  0  2  0  0  0  0  0  0  0  0  0
  144.6880  136.9565  151.1789 O   0  0  0  0  0  0  0  0  0  0  0  0
  142.9179  137.5581  153.5363 C   0  0  0  0  0  0  0  0  0  0  0  0
  141.6095  137.2772  153.7012 C   0  0  0  0  0  0  0  0  0  0  0  0
  140.3293  138.7404  153.3179 Br  0  0  0  0  0  0  0  0  0  0  0  0
  145.9183  136.1561  154.1124 H   0  0  0  0  0  0  0  0  0  0  0  0
  147.6415  138.2644  153.8044 H   0  0  0  0  0  0  0  0  0  0  0  0
  145.9831  140.7755  153.2268 H   0  0  0  0  0  0  0  0  0  0  0  0
  146.5365  140.4539  154.8622 H   0  0  0  0  0  0  0  0  0  0  0  0
  148.2330  140.4637  152.5937 H   0  0  0  0  0  0  0  0  0  0  0  0
  145.7035  139.1679  151.6306 H   0  0  0  0  0  0  0  0  0  0  0  0
  148.1083  139.1683  151.5071 H   0  0  0  0  0  0  0  0  0  0  0  0
  146.4866  136.2548  151.8845 H   0  0  0  0  0  0  0  0  0  0  0  0
  144.9483  137.3773  150.3732 H   0  0  0  0  0  0  0  0  0  0  0  0
  143.2054  138.5443  153.2033 H   0  0  0  0  0  0  0  0  0  0  0  0
  1  2  2  0  0  0  0
  2 17  1  0  0  0  0
  2  3  1  0  0  0  0
  3  4  1  0  0  0  0
  4  5  2  0  0  0  0
  4  6  1  0  0  0  0
  6  7  1  0  0  0  0
  6 16  1  0  0  0  0
  7 14  1  0  0  0  0
  7  8  1  0  0  0  0
  7 19  1  0  0  0  0
  8  9  1  0  0  0  0
  9 10  1  0  0  0  0
  9 12  1  0  0  0  0
  9 20  1  0  0  0  0
 10 11  1  0  0  0  0
 10 21  1  0  0  0  0
 10 22  1  0  0  0  0
 11 23  1  0  0  0  0
 12 13  1  0  0  0  0
 12 14  1  0  0  0  0
 12 24  1  0  0  0  0
 13 25  1  0  0  0  0
 14 15  1  0  0  0  0
 14 26  1  0  0  0  0
 15 27  1  0  0  0  0
 16 17  2  0  0  0  0
 16 28  1  0  0  0  0
 17 18  1  0  0  0  0
M  CHG  1   3  -1
M  END
> <s_m_source_file>
AV-unprocessed.smi

> <i_m_source_file_index>
35

> <i_lp_mmshare_version>
43012

> <i_f3d_flags>
0

> <s_epik_input>
Tz1jMVtuSF1jKD1PKW4oW2NIXWMxQnIpW0NAQEhdMk9bQ0BASF0oW0NIMl1bT0hdKVtDQEBIXShbT0hdKVtDQEhdMltPSF0=

> <s_epik_cmdline>
J2VwaWtfcHl0aG9uJywgJy1waCcsICc3LjAnLCAnLXRuJywgJzgnLCAnLW1hJywgJzIwMCcsICctbWV0YWxfYmluZGluZycsICctaW1hZScsICc8aW5maWxlLm1hZT4nLCAnLW9tYWUnLCAnPG91dGZpbGUubWFlPic=

> <r_epik_Ionization_Penalty>
1.06112

> <r_epik_Ionization_Penalty_Charging>
2.1796e-09

> <r_epik_Ionization_Penalty_Neutral>
1.06112

> <r_epik_State_Penalty>
1.11484

> <r_epik_Charging_Adjusted_Penalty>
1.11484

> <i_epik_Tot_Q>
-1

> <i_epik_Tot_abs_Q>
1

> <r_epik_Metal_State_Penalty>
0.0032876

> <b_epik_Metal_Only>
0

> <s_epik_Chemistry_Notes>
This compound contains an acetal/aminal-like group ( X-CH(R)-Y where X, Y are N, S, or O) that may be acid/base labile, releasing an aldehyde.

> <s_lp_Force_Field>
OPLS_2005

> <r_lp_Energy>
42.5644

> <b_lp_Chiralities_Consistent>
1

> <s_lp_Variant>
AV-unprocessed.smi:35-27

> <Gold.Version>
5.8.1

> <Gold.Id.Protein>
6NUR|6NUR_protein|mol2

> <Gold.PLP.Fitness>
38.4028

> <Gold.PLP.PLP>
-23.5297

> <Gold.PLP.part.hbond>
-6.4729

> <Gold.PLP.part.metal>
0.0000

> <Gold.PLP.part.buried>
-0.9074

> <Gold.PLP.part.nonpolar>
-17.5363

> <Gold.PLP.part.repulsive>
0.4248

> <Gold.PLP.ligand.clash>
0.0000

> <Gold.PLP.ligand.torsion>
0.4915

> <Gold.PLP.Chemscore.Hbond>
4.2160

> <Gold.PLP.Chemscore.CHOScore>
1.0000

> <Gold.PLP.Chemscore.Metal>
0.0000

> <Gold.Chemscore.Hbonds>
donor molecule, donor type, donor heavy atom, donor atom, acceptor molecule, acceptor atom, score
      L1  H    11    23       P1  7957  1.00
      L1  H    13    25       P1  7957  0.85
      L1  H    15    27       P1 10171  0.32
      P1  H  7954  7966       L1    13  1.00
      P1  H 11000 11005       L1     1  1.00
      L1  C    16    28       P1 10175  1.00

> <Gold.PLP.Chemscore.Internal.Correction>
0.2081

> <Gold.Rescore>
     Score         DG    S(hbond)    S(metal)    S(lipo)     H(rot)  DE(clash)    DE(int)     intcor
     10.61     -11.81       3.46        0.00      34.82       3.63       0.44       0.77       ----

> <Gold.Chemscore.Fitness>
10.6085

> <Gold.Chemscore.DG>
-11.8145

> <Gold.Chemscore.ZeroCoef>
-5.4800

> <Gold.Chemscore.Hbond>
3.4559

> <Gold.Chemscore.Metal>
0.0000

> <Gold.Chemscore.Lipo>
34.8246

> <Gold.Chemscore.Internal_Hbond>
0.0000

> <Gold.Chemscore.DEClash>
0.4393

> <Gold.Chemscore.DEInternal>
0.7667

> <Gold.Chemscore.Rot>
3.6261

> <Gold.Chemscore.Internal.Correction>
   9.000000E+99

> <Gold.Chemscore.Hbonds>
donor molecule, donor type, donor heavy atom, donor atom, acceptor molecule, acceptor atom, score
      L1  H    11    23       P1  7957  0.91
      L1  H    13    25       P1  7957  0.75
      L1  H    15    27       P1 10171  0.32
      P1  H  7954  7966       L1    13  0.52
      P1  H 11000 11005       L1     1  0.30

> <Gold.Chemscore.Hbond.Weighted>
-11.5428

> <Gold.Chemscore.Metal.Weighted>
-0.0000

> <Gold.Chemscore.Lipo.Weighted>
-4.0745

> <Gold.Chemscore.Internal_Hbond.Weighted>
0.0000

> <Gold.Chemscore.DEClash.Weighted>
0.4393

> <Gold.Chemscore.DEInternal.Weighted>
0.7667

> <Gold.Chemscore.Rot.Weighted>
9.2828

> <Gold.Chemscore.Internal.Correction.Weighted>
   9.000000E+99

> <Gold.Protein.RotatedTorsions>
[ 6907 6896 6895 6894 ] final  -93.73 input  -60.11 | X-H torsion
[ 7974 7965 7964 7962 ] final  -93.08 input  175.53 | X-H torsion
[ 8008 7997 7996 7995 ] final  -44.97 input   59.86 | X-H torsion
[ 10167 10162 10161 10158 ] final  -78.33 input  -65.29 | X-H torsion
[ 10718 10713 10712 10709 ] final   49.98 input   66.30 | X-H torsion
[ 10763 10752 10751 10750 ] final   17.54 input  -60.55 | X-H torsion
[ 11005 11000 10999 10996 ] final   54.79 input  -57.11 | X-H torsion

> <Gold.Protein.ActiveResidues>
 VAL166  LYS551  ARG553  GLY616  TRP617  ASP618  TYR619  PRO620  LYS621  CYS622 
 ASP623  PHE694  ASN695  SER759  ASP760  ASP761  ALA762  ILE779  LEU786  VAL792 
 PHE793  MET794  SER795  GLU796  ALA797  LYS798  CYS799  TRP800  GLU811  SER814 

> <Gold.Protein.RotatedAtoms>
  150.6928  134.1921  159.4289 H   0  0  0  0  0  0  0  0  0  0  0  0  # atno 6907 bound_to 6896
  151.9892  134.9986  160.0570 H   0  0  0  0  0  0  0  0  0  0  0  0  # atno 6908 bound_to 6896
  152.1683  133.4592  159.4933 H   0  0  0  0  0  0  0  0  0  0  0  0  # atno 6909 bound_to 6896
  145.3912  140.9528  143.2339 H   0  0  0  0  0  0  0  0  0  0  0  0  # atno 7974 bound_to 7965
  154.3999  140.1408  156.3770 H   0  0  0  0  0  0  0  0  0  0  0  0  # atno 8008 bound_to 7997
  155.8039  140.3475  155.5398 H   0  0  0  0  0  0  0  0  0  0  0  0  # atno 8009 bound_to 7997
  155.8455  140.0933  157.1698 H   0  0  0  0  0  0  0  0  0  0  0  0  # atno 8010 bound_to 7997
  140.4692  143.2431  151.8231 H   0  0  0  0  0  0  0  0  0  0  0  0  # atno 10167 bound_to 10162
  157.4840  130.8333  149.8125 H   0  0  0  0  0  0  0  0  0  0  0  0  # atno 10718 bound_to 10713
  153.1330  135.6744  153.9148 H   0  0  0  0  0  0  0  0  0  0  0  0  # atno 10763 bound_to 10752
  153.8629  135.3079  155.3440 H   0  0  0  0  0  0  0  0  0  0  0  0  # atno 10764 bound_to 10752
  154.7723  135.4933  153.9756 H   0  0  0  0  0  0  0  0  0  0  0  0  # atno 10765 bound_to 10752
  140.0658  134.5539  155.9101 H   0  0  0  0  0  0  0  0  0  0  0  0  # atno 11005 bound_to 11000
  144.8439  139.5429  143.6888 LP  0  0  0  0  0  0  0  0  0  0  0  0  # atno 17320 bound_to 7965
  146.2796  139.6843  142.9238 LP  0  0  0  0  0  0  0  0  0  0  0  0  # atno 17321 bound_to 7965
  139.4816  144.4913  151.9182 LP  0  0  0  0  0  0  0  0  0  0  0  0  # atno 17342 bound_to 10162
  140.3998  144.2508  150.5894 LP  0  0  0  0  0  0  0  0  0  0  0  0  # atno 17343 bound_to 10162
  156.0137  130.3822  150.2181 LP  0  0  0  0  0  0  0  0  0  0  0  0  # atno 17370 bound_to 10713
  157.0368  131.0023  151.3295 LP  0  0  0  0  0  0  0  0  0  0  0  0  # atno 17371 bound_to 10713
  141.1992  133.6605  156.5831 LP  0  0  0  0  0  0  0  0  0  0  0  0  # atno 17394 bound_to 11000
  140.3701  134.7613  157.4593 LP  0  0  0  0  0  0  0  0  0  0  0  0  # atno 17395 bound_to 11000

$$$$
