AV-unprocessed.smi:3289|AV-procd|sdf|12610|dock1
  -GOLD-   2272018543D 1   1.00000     0.00000
 Structure written by MMmdl.
 39 40  0  0  0  0  0  0  0  0  1 V2000
  151.9565  144.3729  157.5830 C   0  0  0  0  0  0  0  0  0  0  0  0
  151.4817  143.8094  158.9298 C   0  0  0  0  0  0  0  0  0  0  0  0
  151.8692  144.7216  160.1035 C   0  0  0  0  0  0  0  0  0  0  0  0
  151.9645  142.3991  159.1374 C   0  0  0  0  0  0  0  0  0  0  0  0
  152.6677  142.0218  160.2028 N   0  0  0  0  0  0  0  0  0  0  0  0
  152.9397  140.6747  159.9999 C   0  0  0  0  0  0  0  0  0  0  0  0
  152.3975  140.2791  158.8027 C   0  0  0  0  0  0  0  0  0  0  0  0
  151.7793  141.3951  158.2511 N   0  0  0  0  0  0  0  0  0  0  0  0
  151.0951  141.4188  156.9661 C   0  0  0  0  0  0  0  0  0  0  0  0
  151.4741  140.2065  156.1123 C   0  0  0  0  0  0  0  0  0  0  0  0
  152.6541  139.8714  156.0101 O   0  0  0  0  0  0  0  0  0  0  0  0
  150.4668  139.5639  155.5013 N   0  0  0  0  0  0  0  0  0  0  0  0
  150.6153  138.3942  154.6431 C   0  0  0  0  0  0  0  0  0  0  0  0
  150.5725  137.0897  155.4557 C   0  0  1  0  0  0  0  0  0  0  0  0
  149.1860  136.7428  155.9882 C   0  0  0  0  0  0  0  0  0  0  0  0
  149.3262  135.2635  156.2798 C   0  0  0  0  0  0  0  0  0  0  0  0
  150.3132  134.7901  155.2102 C   0  0  0  0  0  0  0  0  0  0  0  0
  150.8878  135.9654  154.6449 O   0  0  0  0  0  0  0  0  0  0  0  0
  151.6122  143.7508  156.7561 H   0  0  0  0  0  0  0  0  0  0  0  0
  153.0447  144.4210  157.5331 H   0  0  0  0  0  0  0  0  0  0  0  0
  151.5708  145.3795  157.4205 H   0  0  0  0  0  0  0  0  0  0  0  0
  150.3942  143.8065  158.8991 H   0  0  0  0  0  0  0  0  0  0  0  0
  151.4757  144.3368  161.0448 H   0  0  0  0  0  0  0  0  0  0  0  0
  151.4718  145.7277  159.9669 H   0  0  0  0  0  0  0  0  0  0  0  0
  152.9519  144.8042  160.2040 H   0  0  0  0  0  0  0  0  0  0  0  0
  153.5023  140.1012  160.7215 H   0  0  0  0  0  0  0  0  0  0  0  0
  152.4074  139.3209  158.3043 H   0  0  0  0  0  0  0  0  0  0  0  0
  150.0185  141.4024  157.1399 H   0  0  0  0  0  0  0  0  0  0  0  0
  151.3099  142.3567  156.4531 H   0  0  0  0  0  0  0  0  0  0  0  0
  149.5283  139.9079  155.6439 H   0  0  0  0  0  0  0  0  0  0  0  0
  149.7914  138.4053  153.9293 H   0  0  0  0  0  0  0  0  0  0  0  0
  151.5325  138.4550  154.0546 H   0  0  0  0  0  0  0  0  0  0  0  0
  151.2806  137.1333  156.2854 H   0  0  0  0  0  0  0  0  0  0  0  0
  148.9074  137.3260  156.8663 H   0  0  0  0  0  0  0  0  0  0  0  0
  148.4302  136.9004  155.2172 H   0  0  0  0  0  0  0  0  0  0  0  0
  149.7565  135.1196  157.2719 H   0  0  0  0  0  0  0  0  0  0  0  0
  148.3743  134.7329  156.2435 H   0  0  0  0  0  0  0  0  0  0  0  0
  151.0879  134.1551  155.6407 H   0  0  0  0  0  0  0  0  0  0  0  0
  149.8108  134.2258  154.4241 H   0  0  0  0  0  0  0  0  0  0  0  0
  1  2  1  0  0  0  0
  1 19  1  0  0  0  0
  1 20  1  0  0  0  0
  1 21  1  0  0  0  0
  2  3  1  0  0  0  0
  2  4  1  0  0  0  0
  2 22  1  0  0  0  0
  3 23  1  0  0  0  0
  3 24  1  0  0  0  0
  3 25  1  0  0  0  0
  4  8  1  0  0  0  0
  4  5  2  0  0  0  0
  5  6  1  0  0  0  0
  6  7  2  0  0  0  0
  6 26  1  0  0  0  0
  7  8  1  0  0  0  0
  7 27  1  0  0  0  0
  8  9  1  0  0  0  0
  9 10  1  0  0  0  0
  9 28  1  0  0  0  0
  9 29  1  0  0  0  0
 10 11  2  0  0  0  0
 10 12  1  0  0  0  0
 12 13  1  0  0  0  0
 12 30  1  0  0  0  0
 13 14  1  0  0  0  0
 13 31  1  0  0  0  0
 13 32  1  0  0  0  0
 14 18  1  0  0  0  0
 14 15  1  0  0  0  0
 14 33  1  0  0  0  0
 15 16  1  0  0  0  0
 15 34  1  0  0  0  0
 15 35  1  0  0  0  0
 16 17  1  0  0  0  0
 16 36  1  0  0  0  0
 16 37  1  0  0  0  0
 17 18  1  0  0  0  0
 17 38  1  0  0  0  0
 17 39  1  0  0  0  0
M  END
> <s_m_source_file>
AV-unprocessed.smi

> <i_m_source_file_index>
3289

> <i_lp_mmshare_version>
43012

> <i_f3d_flags>
0

> <s_epik_input>
W0NIM11bQ0hdKFtDSDNdKWMxbltjSF1bY0hdbjFbQ0gyXUMoPU8pW05IXVtDSDJdW0NAQEhdMltDSDJdW0NIMl1bQ0gyXU8y

> <s_epik_cmdline>
J2VwaWtfcHl0aG9uJywgJy1waCcsICc3LjAnLCAnLXRuJywgJzgnLCAnLW1hJywgJzIwMCcsICctbWV0YWxfYmluZGluZycsICctaW1hZScsICc8aW5maWxlLm1hZT4nLCAnLW9tYWUnLCAnPG91dGZpbGUubWFlPic=

> <r_lp_tautomer_probability>
1

> <r_epik_Ionization_Penalty>
0.587725

> <r_epik_Ionization_Penalty_Charging>
0.587725

> <r_epik_Ionization_Penalty_Neutral>
1.43432e-07

> <r_epik_State_Penalty>
0.601029

> <r_epik_Charging_Adjusted_Penalty>
1.18875

> <i_epik_Tot_Q>
0

> <i_epik_Tot_abs_Q>
0

> <r_epik_Metal_State_Penalty>
0.297663

> <b_epik_Metal_Only>
0

> <s_lp_Force_Field>
OPLS_2005

> <r_lp_Energy>
18.4157

> <b_lp_Chiralities_Consistent>
1

> <s_lp_Variant>
AV-unprocessed.smi:3289-4

> <Gold.Version>
5.8.1

> <Gold.Id.Protein>
6NUR|6NUR_protein|mol2

> <Gold.PLP.Fitness>
40.5007

> <Gold.PLP.PLP>
-35.7372

> <Gold.PLP.part.hbond>
-2.0000

> <Gold.PLP.part.metal>
0.0000

> <Gold.PLP.part.buried>
-5.5079

> <Gold.PLP.part.nonpolar>
-28.4963

> <Gold.PLP.part.repulsive>
0.2466

> <Gold.PLP.ligand.clash>
0.0000

> <Gold.PLP.ligand.torsion>
0.6714

> <Gold.PLP.Chemscore.Hbond>
2.0000

> <Gold.PLP.Chemscore.CHOScore>
0.0000

> <Gold.PLP.Chemscore.Metal>
0.0000

> <Gold.Chemscore.Hbonds>
donor molecule, donor type, donor heavy atom, donor atom, acceptor molecule, acceptor atom, score
      P1  H  7997  8009       L1    11  1.00
      P1  H 10752 10763       L1    18  0.88

> <Gold.PLP.Chemscore.Internal.Correction>
0.1063

> <Gold.Rescore>
     Score         DG    S(hbond)    S(metal)    S(lipo)     H(rot)  DE(clash)    DE(int)     intcor
     14.88     -16.72       1.92        0.00      78.83       1.72       0.10       1.74       ----

> <Gold.Chemscore.Fitness>
14.8801

> <Gold.Chemscore.DG>
-16.7203

> <Gold.Chemscore.ZeroCoef>
-5.4800

> <Gold.Chemscore.Hbond>
1.9203

> <Gold.Chemscore.Metal>
0.0000

> <Gold.Chemscore.Lipo>
78.8301

> <Gold.Chemscore.Internal_Hbond>
0.0000

> <Gold.Chemscore.DEClash>
0.1025

> <Gold.Chemscore.DEInternal>
1.7376

> <Gold.Chemscore.Rot>
1.7175

> <Gold.Chemscore.Internal.Correction>
   9.000000E+99

> <Gold.Chemscore.Hbonds>
donor molecule, donor type, donor heavy atom, donor atom, acceptor molecule, acceptor atom, score
      P1  H  7997  8009       L1    11  0.99
      P1  H 10752 10763       L1    18  0.31

> <Gold.Chemscore.Hbond.Weighted>
-6.4139

> <Gold.Chemscore.Metal.Weighted>
-0.0000

> <Gold.Chemscore.Lipo.Weighted>
-9.2231

> <Gold.Chemscore.Internal_Hbond.Weighted>
0.0000

> <Gold.Chemscore.DEClash.Weighted>
0.1025

> <Gold.Chemscore.DEInternal.Weighted>
1.7376

> <Gold.Chemscore.Rot.Weighted>
4.3967

> <Gold.Chemscore.Internal.Correction.Weighted>
   9.000000E+99

> <Gold.Protein.RotatedTorsions>
[ 6907 6896 6895 6894 ] final  109.58 input  -60.11 | X-H torsion
[ 7974 7965 7964 7962 ] final  129.70 input  175.53 | X-H torsion
[ 8008 7997 7996 7995 ] final -145.22 input   59.86 | X-H torsion
[ 10167 10162 10161 10158 ] final    9.96 input  -65.29 | X-H torsion
[ 10718 10713 10712 10709 ] final   70.68 input   66.30 | X-H torsion
[ 10763 10752 10751 10750 ] final   61.36 input  -60.55 | X-H torsion
[ 11005 11000 10999 10996 ] final -172.89 input  -57.11 | X-H torsion

> <Gold.Protein.ActiveResidues>
 VAL166  LYS551  ARG553  GLY616  TRP617  ASP618  TYR619  PRO620  LYS621  CYS622 
 ASP623  PHE694  ASN695  SER759  ASP760  ASP761  ALA762  ILE779  LEU786  VAL792 
 PHE793  MET794  SER795  GLU796  ALA797  LYS798  CYS799  TRP800  GLU811  SER814 

> <Gold.Protein.RotatedAtoms>
  152.5061  133.8924  159.7400 H   0  0  0  0  0  0  0  0  0  0  0  0  # atno 6907 bound_to 6896
  150.9360  133.6703  159.2807 H   0  0  0  0  0  0  0  0  0  0  0  0  # atno 6908 bound_to 6896
  151.4031  135.0979  159.9614 H   0  0  0  0  0  0  0  0  0  0  0  0  # atno 6909 bound_to 6896
  145.0258  139.4090  143.5174 H   0  0  0  0  0  0  0  0  0  0  0  0  # atno 7974 bound_to 7965
  155.5396  140.0607  157.2872 H   0  0  0  0  0  0  0  0  0  0  0  0  # atno 8008 bound_to 7997
  154.4456  140.1921  156.0621 H   0  0  0  0  0  0  0  0  0  0  0  0  # atno 8009 bound_to 7997
  156.0594  140.3274  155.7447 H   0  0  0  0  0  0  0  0  0  0  0  0  # atno 8010 bound_to 7997
  140.6224  143.8176  150.7191 H   0  0  0  0  0  0  0  0  0  0  0  0  # atno 10167 bound_to 10162
  157.6412  130.9489  150.0684 H   0  0  0  0  0  0  0  0  0  0  0  0  # atno 10718 bound_to 10713
  152.9948  135.5503  154.6021 H   0  0  0  0  0  0  0  0  0  0  0  0  # atno 10763 bound_to 10752
  154.5360  135.2816  155.1140 H   0  0  0  0  0  0  0  0  0  0  0  0  # atno 10764 bound_to 10752
  154.2436  135.6412  153.5268 H   0  0  0  0  0  0  0  0  0  0  0  0  # atno 10765 bound_to 10752
  140.4919  134.5977  157.4957 H   0  0  0  0  0  0  0  0  0  0  0  0  # atno 11005 bound_to 11000
  146.3492  139.9782  142.8698 LP  0  0  0  0  0  0  0  0  0  0  0  0  # atno 17320 bound_to 7965
  145.1835  140.9778  143.4252 LP  0  0  0  0  0  0  0  0  0  0  0  0  # atno 17321 bound_to 7965
  140.1769  143.4147  152.1961 LP  0  0  0  0  0  0  0  0  0  0  0  0  # atno 17342 bound_to 10162
  139.5450  144.7290  151.4613 LP  0  0  0  0  0  0  0  0  0  0  0  0  # atno 17343 bound_to 10162
  156.1696  130.3646  149.9184 LP  0  0  0  0  0  0  0  0  0  0  0  0  # atno 17370 bound_to 10713
  156.7163  130.8989  151.3614 LP  0  0  0  0  0  0  0  0  0  0  0  0  # atno 17371 bound_to 10713
  139.9764  134.7208  155.9942 LP  0  0  0  0  0  0  0  0  0  0  0  0  # atno 17394 bound_to 11000
  141.1480  133.6553  156.3925 LP  0  0  0  0  0  0  0  0  0  0  0  0  # atno 17395 bound_to 11000

$$$$
