AV-unprocessed.smi:3298|AV-procd|sdf|12647|dock7
  -GOLD-   2272018583D 1   1.00000     0.00000
 Structure written by MMmdl.
 36 37  0  0  0  0  0  0  0  0  2 V2000
  146.1760  143.1853  154.1267 C   0  0  0  0  0  0  0  0  0  0  0  0
  147.1764  142.0492  154.1571 C   0  0  0  0  0  0  0  0  0  0  0  0
  146.8949  140.7818  153.6038 C   0  0  0  0  0  0  0  0  0  0  0  0
  147.8652  139.7578  153.6727 C   0  0  0  0  0  0  0  0  0  0  0  0
  147.5410  138.5038  153.0875 N   0  0  0  0  0  0  0  0  0  0  0  0
  146.3648  137.8533  153.1035 C   0  0  0  0  0  0  0  0  0  0  0  0
  145.3294  138.2684  153.6239 O   0  0  0  0  0  0  0  0  0  0  0  0
  146.4489  136.6821  152.4572 N   0  0  0  0  0  0  0  0  0  0  0  0
  145.3502  135.7359  152.2994 C   0  0  1  0  0  0  0  0  0  0  0  0
  145.2864  135.2394  150.8799 C   0  0  0  0  0  0  0  0  0  0  0  0
  145.4003  133.9162  150.7908 C   0  0  0  0  0  0  0  0  0  0  0  0
  145.5759  133.2576  152.1345 C   0  0  1  0  0  0  0  0  0  0  0  0
  146.8411  132.3826  152.2184 C   0  0  0  0  0  0  0  0  0  0  0  0
  146.8182  131.3356  151.2680 O   0  0  0  0  0  0  0  0  0  0  0  0
  145.5507  134.4426  153.1340 C   0  0  0  0  0  0  0  0  0  0  0  0
  149.1139  140.0466  154.2793 C   0  0  0  0  0  0  0  0  0  0  0  0
  149.3396  141.3308  154.8148 C   0  0  0  0  0  0  0  0  0  0  0  0
  148.3754  142.2728  154.7385 N   0  3  0  0  0  0  0  0  0  0  0  0
  144.4000  136.2144  152.5431 H   0  0  0  0  0  0  0  0  0  0  0  0
  144.7026  132.6271  152.3052 H   0  0  0  0  0  0  0  0  0  0  0  0
  145.3118  142.9310  153.5122 H   0  0  0  0  0  0  0  0  0  0  0  0
  146.6321  144.0859  153.7144 H   0  0  0  0  0  0  0  0  0  0  0  0
  145.8247  143.4070  155.1347 H   0  0  0  0  0  0  0  0  0  0  0  0
  145.9387  140.5953  153.1363 H   0  0  0  0  0  0  0  0  0  0  0  0
  148.2761  138.0745  152.5450 H   0  0  0  0  0  0  0  0  0  0  0  0
  147.3368  136.4162  152.0570 H   0  0  0  0  0  0  0  0  0  0  0  0
  145.1494  135.9076  150.0424 H   0  0  0  0  0  0  0  0  0  0  0  0
  145.3726  133.3499  149.8716 H   0  0  0  0  0  0  0  0  0  0  0  0
  147.7313  132.9898  152.0530 H   0  0  0  0  0  0  0  0  0  0  0  0
  146.9330  131.9473  153.2139 H   0  0  0  0  0  0  0  0  0  0  0  0
  147.7021  131.1792  150.9728 H   0  0  0  0  0  0  0  0  0  0  0  0
  146.4663  134.4823  153.7259 H   0  0  0  0  0  0  0  0  0  0  0  0
  144.7318  134.3216  153.8440 H   0  0  0  0  0  0  0  0  0  0  0  0
  149.9053  139.3147  154.3334 H   0  0  0  0  0  0  0  0  0  0  0  0
  150.2600  141.6317  155.2933 H   0  0  0  0  0  0  0  0  0  0  0  0
  148.5624  143.1952  155.1327 H   0  0  0  0  0  0  0  0  0  0  0  0
  1  2  1  0  0  0  0
  1 21  1  0  0  0  0
  1 22  1  0  0  0  0
  1 23  1  0  0  0  0
  2 18  1  0  0  0  0
  2  3  2  0  0  0  0
  3  4  1  0  0  0  0
  3 24  1  0  0  0  0
  4  5  1  0  0  0  0
  4 16  2  0  0  0  0
  5  6  1  0  0  0  0
  5 25  1  0  0  0  0
  6  7  2  0  0  0  0
  6  8  1  0  0  0  0
  8  9  1  0  0  0  0
  8 26  1  0  0  0  0
  9 19  1  0  0  0  0
  9 15  1  0  0  0  0
  9 10  1  0  0  0  0
 10 11  2  0  0  0  0
 10 27  1  0  0  0  0
 11 12  1  0  0  0  0
 11 28  1  0  0  0  0
 12 20  1  0  0  0  0
 12 13  1  0  0  0  0
 12 15  1  0  0  0  0
 13 14  1  0  0  0  0
 13 29  1  0  0  0  0
 13 30  1  0  0  0  0
 14 31  1  0  0  0  0
 15 32  1  0  0  0  0
 15 33  1  0  0  0  0
 16 17  1  0  0  0  0
 16 34  1  0  0  0  0
 17 18  2  0  0  0  0
 17 35  1  0  0  0  0
 18 36  1  0  0  0  0
M  CHG  1  18   1
M  END
> <s_m_source_file>
AV-unprocessed.smi

> <i_m_source_file_index>
3298

> <i_lp_mmshare_version>
43012

> <i_f3d_flags>
0

> <s_epik_input>
W0NIM11jMVtjSF1jKFtjSF1bY0hdbjEpW05IXUMoPU8pW05IXVtDQEBIXTJbQ0hdPVtDSF1bQ0BASF0oW0NIMl0yKVtDSDJdW09IXQ==

> <s_epik_cmdline>
J2VwaWtfcHl0aG9uJywgJy1waCcsICc3LjAnLCAnLXRuJywgJzgnLCAnLW1hJywgJzIwMCcsICctbWV0YWxfYmluZGluZycsICctaW1hZScsICc8aW5maWxlLm1hZT4nLCAnLW9tYWUnLCAnPG91dGZpbGUubWFlPic=

> <r_epik_Ionization_Penalty>
0.443901

> <r_epik_Ionization_Penalty_Charging>
0.443881

> <r_epik_Ionization_Penalty_Neutral>
1.94967e-05

> <r_epik_State_Penalty>
0.446172

> <r_epik_Charging_Adjusted_Penalty>
0.890053

> <i_epik_Tot_Q>
1

> <i_epik_Tot_abs_Q>
1

> <r_epik_Metal_State_Penalty>
0.675842

> <b_epik_Metal_Only>
0

> <s_lp_Force_Field>
OPLS_2005

> <r_lp_Energy>
27.9023

> <b_lp_Chiralities_Consistent>
1

> <s_lp_Variant>
AV-unprocessed.smi:3298-8

> <Gold.Version>
5.8.1

> <Gold.Id.Protein>
6NUR|6NUR_protein|mol2

> <Gold.PLP.Fitness>
46.5219

> <Gold.PLP.PLP>
-32.6737

> <Gold.PLP.part.hbond>
-4.1780

> <Gold.PLP.part.metal>
0.0000

> <Gold.PLP.part.buried>
-4.9639

> <Gold.PLP.part.nonpolar>
-26.6332

> <Gold.PLP.part.repulsive>
1.6120

> <Gold.PLP.ligand.clash>
0.0000

> <Gold.PLP.ligand.torsion>
0.4263

> <Gold.PLP.Chemscore.Hbond>
4.8960

> <Gold.PLP.Chemscore.CHOScore>
0.0000

> <Gold.PLP.Chemscore.Metal>
0.0000

> <Gold.Chemscore.Hbonds>
donor molecule, donor type, donor heavy atom, donor atom, acceptor molecule, acceptor atom, score
      L1  H     5    25       P1  7948  0.83
      L1  H     8    26       P1  7948  1.00
      L1  H    14    31       P1 10747  0.89
      L1  H    18    36       P1  8028  2.00

> <Gold.PLP.Chemscore.Internal.Correction>
0.0127

> <Gold.Rescore>
     Score         DG    S(hbond)    S(metal)    S(lipo)     H(rot)  DE(clash)    DE(int)     intcor
     20.18     -22.08       3.87        0.00      70.77       1.81       0.34       1.56       ----

> <Gold.Chemscore.Fitness>
20.1813

> <Gold.Chemscore.DG>
-22.0767

> <Gold.Chemscore.ZeroCoef>
-5.4800

> <Gold.Chemscore.Hbond>
3.8744

> <Gold.Chemscore.Metal>
0.0000

> <Gold.Chemscore.Lipo>
70.7671

> <Gold.Chemscore.Internal_Hbond>
0.0000

> <Gold.Chemscore.DEClash>
0.3383

> <Gold.Chemscore.DEInternal>
1.5571

> <Gold.Chemscore.Rot>
1.8061

> <Gold.Chemscore.Internal.Correction>
   9.000000E+99

> <Gold.Chemscore.Hbonds>
donor molecule, donor type, donor heavy atom, donor atom, acceptor molecule, acceptor atom, score
      L1  H     5    25       P1  7948  0.78
      L1  H     8    26       P1  7948  0.99
      L1  H    14    31       P1 10747  0.87
      L1  H    18    36       P1  8028  0.99

> <Gold.Chemscore.Hbond.Weighted>
-12.9406

> <Gold.Chemscore.Metal.Weighted>
-0.0000

> <Gold.Chemscore.Lipo.Weighted>
-8.2798

> <Gold.Chemscore.Internal_Hbond.Weighted>
0.0000

> <Gold.Chemscore.DEClash.Weighted>
0.3383

> <Gold.Chemscore.DEInternal.Weighted>
1.5571

> <Gold.Chemscore.Rot.Weighted>
4.6237

> <Gold.Chemscore.Internal.Correction.Weighted>
   9.000000E+99

> <Gold.Protein.RotatedTorsions>
[ 6907 6896 6895 6894 ] final -118.39 input  -60.11 | X-H torsion
[ 7974 7965 7964 7962 ] final  121.62 input  175.53 | X-H torsion
[ 8008 7997 7996 7995 ] final  160.64 input   59.86 | X-H torsion
[ 10167 10162 10161 10158 ] final   70.65 input  -65.29 | X-H torsion
[ 10718 10713 10712 10709 ] final   -4.48 input   66.30 | X-H torsion
[ 10763 10752 10751 10750 ] final  -20.24 input  -60.55 | X-H torsion
[ 11005 11000 10999 10996 ] final   91.49 input  -57.11 | X-H torsion

> <Gold.Protein.ActiveResidues>
 VAL166  LYS551  ARG553  GLY616  TRP617  ASP618  TYR619  PRO620  LYS621  CYS622 
 ASP623  PHE694  ASN695  SER759  ASP760  ASP761  ALA762  ILE779  LEU786  VAL792 
 PHE793  MET794  SER795  GLU796  ALA797  LYS798  CYS799  TRP800  GLU811  SER814 

> <Gold.Protein.RotatedAtoms>
  150.8216  133.8243  159.3136 H   0  0  0  0  0  0  0  0  0  0  0  0  # atno 6907 bound_to 6896
  151.6000  135.1046  160.0067 H   0  0  0  0  0  0  0  0  0  0  0  0  # atno 6908 bound_to 6896
  152.4304  133.7227  159.6599 H   0  0  0  0  0  0  0  0  0  0  0  0  # atno 6909 bound_to 6896
  145.1171  139.3413  143.4733 H   0  0  0  0  0  0  0  0  0  0  0  0  # atno 7974 bound_to 7965
  156.2158  140.1798  156.7592 H   0  0  0  0  0  0  0  0  0  0  0  0  # atno 8008 bound_to 7997
  154.5789  140.0669  156.9105 H   0  0  0  0  0  0  0  0  0  0  0  0  # atno 8009 bound_to 7997
  155.2537  140.3331  155.4282 H   0  0  0  0  0  0  0  0  0  0  0  0  # atno 8010 bound_to 7997
  140.0546  144.5283  150.7338 H   0  0  0  0  0  0  0  0  0  0  0  0  # atno 10167 bound_to 10162
  156.7606  130.5268  149.5786 H   0  0  0  0  0  0  0  0  0  0  0  0  # atno 10718 bound_to 10713
  153.6173  135.6994  153.5324 H   0  0  0  0  0  0  0  0  0  0  0  0  # atno 10763 bound_to 10752
  153.2967  135.4141  155.1215 H   0  0  0  0  0  0  0  0  0  0  0  0  # atno 10764 bound_to 10752
  154.8551  135.3638  154.5713 H   0  0  0  0  0  0  0  0  0  0  0  0  # atno 10765 bound_to 10752
  139.8838  134.8677  156.3435 H   0  0  0  0  0  0  0  0  0  0  0  0  # atno 11005 bound_to 11000
  146.3523  140.1115  142.8603 LP  0  0  0  0  0  0  0  0  0  0  0  0  # atno 17320 bound_to 7965
  145.0781  140.9202  143.4841 LP  0  0  0  0  0  0  0  0  0  0  0  0  # atno 17321 bound_to 7965
  140.7200  143.2580  151.4308 LP  0  0  0  0  0  0  0  0  0  0  0  0  # atno 17342 bound_to 10162
  139.5931  144.1455  152.2112 LP  0  0  0  0  0  0  0  0  0  0  0  0  # atno 17343 bound_to 10162
  156.1341  130.6199  151.0376 LP  0  0  0  0  0  0  0  0  0  0  0  0  # atno 17370 bound_to 10713
  157.6736  131.0855  150.7551 LP  0  0  0  0  0  0  0  0  0  0  0  0  # atno 17371 bound_to 10713
  140.9642  133.7369  156.0444 LP  0  0  0  0  0  0  0  0  0  0  0  0  # atno 17394 bound_to 11000
  140.7951  134.3572  157.5454 LP  0  0  0  0  0  0  0  0  0  0  0  0  # atno 17395 bound_to 11000

$$$$
