AV-unprocessed.smi:1703|AV-procd|sdf|6863|dock3
  -GOLD-   22720 8 53D 1   1.00000     0.00000
 Structure written by MMmdl.
 49 51  0  0  0  0  0  0  0  0  2 V2000
  147.1094  136.6069  156.4396 C   0  0  0  0  0  0  0  0  0  0  0  0
  147.8101  137.1210  155.1771 C   0  0  2  0  0  0  0  0  0  0  0  0
  149.3226  137.3177  155.3926 C   0  0  0  0  0  0  0  0  0  0  0  0
  149.9522  137.8902  154.1794 N   0  3  2  0  0  0  0  0  0  0  0  0
  151.4234  138.0347  154.3212 C   0  0  0  0  0  0  0  0  0  0  0  0
  151.8243  139.2721  155.1544 C   0  0  2  0  0  0  0  0  0  0  0  0
  153.2334  139.3806  155.1669 O   0  0  0  0  0  0  0  0  0  0  0  0
  151.3441  139.2160  156.6187 C   0  0  0  0  0  0  0  0  0  0  0  0
  151.1938  140.5380  157.2128 N   0  0  0  0  0  0  0  0  0  0  0  0
  150.2743  141.4965  156.9297 C   0  0  0  0  0  0  0  0  0  0  0  0
  149.2100  141.3103  155.8918 C   0  0  0  0  0  0  0  0  0  0  0  0
  149.3579  142.1868  154.7958 O   0  0  0  0  0  0  0  0  0  0  0  0
  150.3781  142.6247  157.6325 N   0  0  0  0  0  0  0  0  0  0  0  0
  151.4565  142.3726  158.4571 C   0  0  0  0  0  0  0  0  0  0  0  0
  152.0685  143.1805  159.4419 C   0  0  0  0  0  0  0  0  0  0  0  0
  153.1764  142.7010  160.1709 C   0  0  0  0  0  0  0  0  0  0  0  0
  153.6870  141.4098  159.9263 C   0  0  0  0  0  0  0  0  0  0  0  0
  153.0928  140.5890  158.9484 C   0  0  0  0  0  0  0  0  0  0  0  0
  151.9881  141.0730  158.2224 C   0  0  0  0  0  0  0  0  0  0  0  0
  149.2633  139.1439  153.7854 C   0  0  0  0  0  0  0  0  0  0  0  0
  147.7533  138.8953  153.6088 C   0  0  2  0  0  0  0  0  0  0  0  0
  146.9902  140.1809  153.2716 C   0  0  0  0  0  0  0  0  0  0  0  0
  147.2245  138.3685  154.8208 O   0  0  0  0  0  0  0  0  0  0  0  0
  147.5113  135.6409  156.7462 H   0  0  0  0  0  0  0  0  0  0  0  0
  146.0400  136.4819  156.2679 H   0  0  0  0  0  0  0  0  0  0  0  0
  147.2337  137.3007  157.2716 H   0  0  0  0  0  0  0  0  0  0  0  0
  147.6434  136.4036  154.3717 H   0  0  0  0  0  0  0  0  0  0  0  0
  149.5018  137.9801  156.2416 H   0  0  0  0  0  0  0  0  0  0  0  0
  149.7861  136.3592  155.6299 H   0  0  0  0  0  0  0  0  0  0  0  0
  151.8212  137.1186  154.7596 H   0  0  0  0  0  0  0  0  0  0  0  0
  151.8792  138.1222  153.3338 H   0  0  0  0  0  0  0  0  0  0  0  0
  151.4258  140.1776  154.6991 H   0  0  0  0  0  0  0  0  0  0  0  0
  153.5726  139.0228  154.3603 H   0  0  0  0  0  0  0  0  0  0  0  0
  150.4021  138.6730  156.6887 H   0  0  0  0  0  0  0  0  0  0  0  0
  152.0586  138.6563  157.2239 H   0  0  0  0  0  0  0  0  0  0  0  0
  149.2413  140.2842  155.5234 H   0  0  0  0  0  0  0  0  0  0  0  0
  148.2272  141.4502  156.3412 H   0  0  0  0  0  0  0  0  0  0  0  0
  148.8607  142.9717  154.9678 H   0  0  0  0  0  0  0  0  0  0  0  0
  151.6837  144.1702  159.6384 H   0  0  0  0  0  0  0  0  0  0  0  0
  153.6355  143.3266  160.9226 H   0  0  0  0  0  0  0  0  0  0  0  0
  154.5341  141.0492  160.4914 H   0  0  0  0  0  0  0  0  0  0  0  0
  153.4807  139.5989  158.7615 H   0  0  0  0  0  0  0  0  0  0  0  0
  149.4326  139.9080  154.5461 H   0  0  0  0  0  0  0  0  0  0  0  0
  149.6745  139.5277  152.8525 H   0  0  0  0  0  0  0  0  0  0  0  0
  147.5914  138.1761  152.8035 H   0  0  0  0  0  0  0  0  0  0  0  0
  147.3548  140.6223  152.3435 H   0  0  0  0  0  0  0  0  0  0  0  0
  147.0988  140.9249  154.0614 H   0  0  0  0  0  0  0  0  0  0  0  0
  145.9259  139.9808  153.1468 H   0  0  0  0  0  0  0  0  0  0  0  0
  149.8011  137.2216  153.4370 H   0  0  0  0  0  0  0  0  0  0  0  0
  1  2  1  0  0  0  0
  1 24  1  0  0  0  0
  1 25  1  0  0  0  0
  1 26  1  0  0  0  0
  2 23  1  0  0  0  0
  2  3  1  0  0  0  0
  2 27  1  0  0  0  0
  3  4  1  0  0  0  0
  3 28  1  0  0  0  0
  3 29  1  0  0  0  0
  4  5  1  0  0  0  0
  4 20  1  0  0  0  0
  4 49  1  0  0  0  0
  5  6  1  0  0  0  0
  5 30  1  0  0  0  0
  5 31  1  0  0  0  0
  6  7  1  0  0  0  0
  6  8  1  0  0  0  0
  6 32  1  0  0  0  0
  7 33  1  0  0  0  0
  8  9  1  0  0  0  0
  8 34  1  0  0  0  0
  8 35  1  0  0  0  0
  9 19  1  0  0  0  0
  9 10  1  0  0  0  0
 10 11  1  0  0  0  0
 10 13  2  0  0  0  0
 11 12  1  0  0  0  0
 11 36  1  0  0  0  0
 11 37  1  0  0  0  0
 12 38  1  0  0  0  0
 13 14  1  0  0  0  0
 14 19  2  0  0  0  0
 14 15  1  0  0  0  0
 15 16  2  0  0  0  0
 15 39  1  0  0  0  0
 16 17  1  0  0  0  0
 16 40  1  0  0  0  0
 17 18  2  0  0  0  0
 17 41  1  0  0  0  0
 18 19  1  0  0  0  0
 18 42  1  0  0  0  0
 20 21  1  0  0  0  0
 20 43  1  0  0  0  0
 20 44  1  0  0  0  0
 21 22  1  0  0  0  0
 21 23  1  0  0  0  0
 21 45  1  0  0  0  0
 22 46  1  0  0  0  0
 22 47  1  0  0  0  0
 22 48  1  0  0  0  0
M  CHG  1   4   1
M  END
> <s_m_source_file>
AV-unprocessed.smi

> <i_m_source_file_index>
1703

> <i_lp_mmshare_version>
43012

> <i_f3d_flags>
0

> <s_epik_input>
W0NIM11bQ0BASF0xW0NIMl1OKFtDSDJdW0NASF0oTzEpW0NIM10pW0NIMl1bQ0BIXShbT0hdKVtDSDJdbihjKG4yKVtDSDJdW09IXSljKGMyMylbY0hdW2NIXVtjSF1bY0hdMw==

> <s_epik_cmdline>
J2VwaWtfcHl0aG9uJywgJy1waCcsICc3LjAnLCAnLXRuJywgJzgnLCAnLW1hJywgJzIwMCcsICctbWV0YWxfYmluZGluZycsICctaW1hZScsICc8aW5maWxlLm1hZT4nLCAnLW9tYWUnLCAnPG91dGZpbGUubWFlPic=

> <r_epik_Ionization_Penalty>
0.655661

> <r_epik_Ionization_Penalty_Charging>
0.608065

> <r_epik_Ionization_Penalty_Neutral>
0.0475963

> <r_epik_State_Penalty>
0.695267

> <r_epik_Charging_Adjusted_Penalty>
1.30333

> <i_epik_Tot_Q>
1

> <i_epik_Tot_abs_Q>
1

> <r_epik_Metal_State_Penalty>
0.653591

> <b_epik_Metal_Only>
0

> <s_lp_Force_Field>
OPLS_2005

> <r_lp_Energy>
21.8251

> <b_lp_Chiralities_Consistent>
1

> <s_lp_Variant>
AV-unprocessed.smi:1703-11

> <Gold.Version>
5.8.1

> <Gold.Id.Protein>
6NUR|6NUR_protein|mol2

> <Gold.PLP.Fitness>
51.2572

> <Gold.PLP.PLP>
-40.1749

> <Gold.PLP.part.hbond>
-4.2777

> <Gold.PLP.part.metal>
0.0000

> <Gold.PLP.part.buried>
-0.4021

> <Gold.PLP.part.nonpolar>
-34.9616

> <Gold.PLP.part.repulsive>
0.2606

> <Gold.PLP.ligand.clash>
0.0000

> <Gold.PLP.ligand.torsion>
0.5053

> <Gold.PLP.Chemscore.Hbond>
4.0000

> <Gold.PLP.Chemscore.CHOScore>
0.0000

> <Gold.PLP.Chemscore.Metal>
0.0000

> <Gold.Chemscore.Hbonds>
donor molecule, donor type, donor heavy atom, donor atom, acceptor molecule, acceptor atom, score
      L1  H     4    49       P1  7948  2.00
      L1  H    12    38       P1  8028  0.94
      P1  H  7997  8008       L1     7  1.00

> <Gold.PLP.Chemscore.Internal.Correction>
0.0929

> <Gold.Rescore>
     Score         DG    S(hbond)    S(metal)    S(lipo)     H(rot)  DE(clash)    DE(int)     intcor
     18.08     -20.00       2.87        0.00     107.06       2.96       1.36       0.56       ----

> <Gold.Chemscore.Fitness>
18.0800

> <Gold.Chemscore.DG>
-20.0010

> <Gold.Chemscore.ZeroCoef>
-5.4800

> <Gold.Chemscore.Hbond>
2.8670

> <Gold.Chemscore.Metal>
0.0000

> <Gold.Chemscore.Lipo>
107.0573

> <Gold.Chemscore.Internal_Hbond>
0.0000

> <Gold.Chemscore.DEClash>
1.3601

> <Gold.Chemscore.DEInternal>
0.5609

> <Gold.Chemscore.Rot>
2.9611

> <Gold.Chemscore.Internal.Correction>
   9.000000E+99

> <Gold.Chemscore.Hbonds>
donor molecule, donor type, donor heavy atom, donor atom, acceptor molecule, acceptor atom, score
      L1  H     4    49       P1  7948  0.53
      L1  H    12    38       P1  8028  0.91
      P1  H  7997  8008       L1     7  0.34

> <Gold.Chemscore.Hbond.Weighted>
-9.5756

> <Gold.Chemscore.Metal.Weighted>
-0.0000

> <Gold.Chemscore.Lipo.Weighted>
-12.5257

> <Gold.Chemscore.Internal_Hbond.Weighted>
0.0000

> <Gold.Chemscore.DEClash.Weighted>
1.3601

> <Gold.Chemscore.DEInternal.Weighted>
0.5609

> <Gold.Chemscore.Rot.Weighted>
7.5803

> <Gold.Chemscore.Internal.Correction.Weighted>
   9.000000E+99

> <Gold.Protein.RotatedTorsions>
[ 6907 6896 6895 6894 ] final  -51.80 input  -60.11 | X-H torsion
[ 7974 7965 7964 7962 ] final -100.88 input  175.53 | X-H torsion
[ 8008 7997 7996 7995 ] final   -5.11 input   59.86 | X-H torsion
[ 10167 10162 10161 10158 ] final -116.11 input  -65.29 | X-H torsion
[ 10718 10713 10712 10709 ] final  -32.36 input   66.30 | X-H torsion
[ 10763 10752 10751 10750 ] final  -93.52 input  -60.55 | X-H torsion
[ 11005 11000 10999 10996 ] final -173.26 input  -57.11 | X-H torsion

> <Gold.Protein.ActiveResidues>
 VAL166  LYS551  ARG553  GLY616  TRP617  ASP618  TYR619  PRO620  LYS621  CYS622 
 ASP623  PHE694  ASN695  SER759  ASP760  ASP761  ALA762  ILE779  LEU786  VAL792 
 PHE793  MET794  SER795  GLU796  ALA797  LYS798  CYS799  TRP800  GLU811  SER814 

> <Gold.Protein.RotatedAtoms>
  150.8577  134.7920  159.7058 H   0  0  0  0  0  0  0  0  0  0  0  0  # atno 6907 bound_to 6896
  152.4624  134.5151  159.9775 H   0  0  0  0  0  0  0  0  0  0  0  0  # atno 6908 bound_to 6896
  151.5261  133.3419  159.2945 H   0  0  0  0  0  0  0  0  0  0  0  0  # atno 6909 bound_to 6896
  145.2888  140.9347  143.2889 H   0  0  0  0  0  0  0  0  0  0  0  0  # atno 7974 bound_to 7965
  154.6072  140.2466  155.7715 H   0  0  0  0  0  0  0  0  0  0  0  0  # atno 8008 bound_to 7997
  156.2348  140.2954  156.0235 H   0  0  0  0  0  0  0  0  0  0  0  0  # atno 8009 bound_to 7997
  155.2111  140.0397  157.2924 H   0  0  0  0  0  0  0  0  0  0  0  0  # atno 8010 bound_to 7997
  140.0827  143.4772  152.1916 H   0  0  0  0  0  0  0  0  0  0  0  0  # atno 10167 bound_to 10162
  156.3758  130.4347  149.7508 H   0  0  0  0  0  0  0  0  0  0  0  0  # atno 10718 bound_to 10713
  154.6967  135.5191  153.8469 H   0  0  0  0  0  0  0  0  0  0  0  0  # atno 10763 bound_to 10752
  153.0673  135.6589  154.0336 H   0  0  0  0  0  0  0  0  0  0  0  0  # atno 10764 bound_to 10752
  154.0201  135.2994  155.3361 H   0  0  0  0  0  0  0  0  0  0  0  0  # atno 10765 bound_to 10752
  140.4877  134.6014  157.4943 H   0  0  0  0  0  0  0  0  0  0  0  0  # atno 11005 bound_to 11000
  144.9190  139.4435  143.6550 LP  0  0  0  0  0  0  0  0  0  0  0  0  # atno 17320 bound_to 7965
  146.3192  139.8040  142.8959 LP  0  0  0  0  0  0  0  0  0  0  0  0  # atno 17321 bound_to 7965
  139.5770  144.7492  151.3739 LP  0  0  0  0  0  0  0  0  0  0  0  0  # atno 17342 bound_to 10162
  140.7069  143.7490  150.7498 LP  0  0  0  0  0  0  0  0  0  0  0  0  # atno 17343 bound_to 10162
  156.4618  130.7955  151.2975 LP  0  0  0  0  0  0  0  0  0  0  0  0  # atno 17370 bound_to 10713
  157.7488  131.0063  150.3148 LP  0  0  0  0  0  0  0  0  0  0  0  0  # atno 17371 bound_to 10713
  139.9788  134.7171  155.9899 LP  0  0  0  0  0  0  0  0  0  0  0  0  # atno 17394 bound_to 11000
  141.1500  133.6550  156.3983 LP  0  0  0  0  0  0  0  0  0  0  0  0  # atno 17395 bound_to 11000

$$$$
