AV-unprocessed.smi:110|AV-procd|sdf|1072|dock8
  -GOLD-   2262018153D 1   1.00000     0.00000
 Structure written by MMmdl.
 46 50  0  0  0  0  0  0  0  0  1 V2000
  147.3891  138.4830  152.3137 O   0  0  0  0  0  0  0  0  0  0  0  0
  147.1218  138.9010  153.6362 C   0  0  0  0  0  0  0  0  0  0  0  0
  148.3352  138.7074  154.5633 C   0  0  2  0  0  0  0  0  0  0  0  0
  149.4993  139.2970  154.0057 O   0  0  0  0  0  0  0  0  0  0  0  0
  150.6184  138.7968  154.6704 C   0  0  1  0  0  0  0  0  0  0  0  0
  150.9649  139.7258  155.7950 N   0  0  0  0  0  0  0  0  0  0  0  0
  150.4777  140.9837  156.0802 C   0  0  0  0  0  0  0  0  0  0  0  0
  150.9910  141.5530  157.1370 N   0  0  0  0  0  0  0  0  0  0  0  0
  151.9310  140.6393  157.5989 C   0  0  0  0  0  0  0  0  0  0  0  0
  152.8462  140.6063  158.6900 C   0  0  0  0  0  0  0  0  0  0  0  0
  152.9900  141.5920  159.6063 N   0  0  0  0  0  0  0  0  0  0  0  0
  153.3855  141.2460  160.9791 C   0  0  0  0  0  0  0  0  0  0  0  0
  153.0180  142.4377  161.8832 C   0  0  0  0  0  0  0  0  0  0  0  0
  152.5481  143.4301  160.8692 C   0  0  0  0  0  0  0  0  0  0  0  0
  152.1504  144.7585  161.0988 C   0  0  0  0  0  0  0  0  0  0  0  0
  151.7644  145.5385  159.9880 C   0  0  0  0  0  0  0  0  0  0  0  0
  151.7911  144.9891  158.6850 C   0  0  0  0  0  0  0  0  0  0  0  0
  152.1961  143.6519  158.4781 C   0  0  0  0  0  0  0  0  0  0  0  0
  152.5594  142.8712  159.5950 C   0  0  0  0  0  0  0  0  0  0  0  0
  153.5920  139.4831  158.8503 N   0  0  0  0  0  0  0  0  0  0  0  0
  153.4853  138.4749  157.9807 C   0  0  0  0  0  0  0  0  0  0  0  0
  152.6955  138.3770  156.9101 N   0  0  0  0  0  0  0  0  0  0  0  0
  151.9180  139.4884  156.7617 C   0  0  0  0  0  0  0  0  0  0  0  0
  150.2392  137.4051  155.2234 C   0  0  2  0  0  0  0  0  0  0  0  0
  150.9898  136.3827  154.6003 O   0  0  0  0  0  0  0  0  0  0  0  0
  148.7545  137.2674  154.8809 C   0  0  1  0  0  0  0  0  0  0  0  0
  148.0260  136.7861  155.9931 O   0  0  0  0  0  0  0  0  0  0  0  0
  148.1338  139.2354  155.4973 H   0  0  0  0  0  0  0  0  0  0  0  0
  151.5022  138.8106  154.0309 H   0  0  0  0  0  0  0  0  0  0  0  0
  150.4089  137.3684  156.3009 H   0  0  0  0  0  0  0  0  0  0  0  0
  148.6156  136.6086  154.0230 H   0  0  0  0  0  0  0  0  0  0  0  0
  147.8725  137.6716  152.3460 H   0  0  0  0  0  0  0  0  0  0  0  0
  146.8062  139.9446  153.6327 H   0  0  0  0  0  0  0  0  0  0  0  0
  146.2806  138.3150  154.0072 H   0  0  0  0  0  0  0  0  0  0  0  0
  149.7220  141.4744  155.4846 H   0  0  0  0  0  0  0  0  0  0  0  0
  152.8867  140.3343  161.3110 H   0  0  0  0  0  0  0  0  0  0  0  0
  154.4610  141.0665  161.0049 H   0  0  0  0  0  0  0  0  0  0  0  0
  152.2123  142.1918  162.5755 H   0  0  0  0  0  0  0  0  0  0  0  0
  153.8750  142.8148  162.4415 H   0  0  0  0  0  0  0  0  0  0  0  0
  152.1460  145.1725  162.0963 H   0  0  0  0  0  0  0  0  0  0  0  0
  151.4553  146.5631  160.1327 H   0  0  0  0  0  0  0  0  0  0  0  0
  151.5046  145.5983  157.8406 H   0  0  0  0  0  0  0  0  0  0  0  0
  152.2298  143.2454  157.4784 H   0  0  0  0  0  0  0  0  0  0  0  0
  154.1219  137.6238  158.1724 H   0  0  0  0  0  0  0  0  0  0  0  0
  150.7179  136.3225  153.6972 H   0  0  0  0  0  0  0  0  0  0  0  0
  147.1104  136.7585  155.7614 H   0  0  0  0  0  0  0  0  0  0  0  0
  1  2  1  0  0  0  0
  1 32  1  0  0  0  0
  2  3  1  0  0  0  0
  2 33  1  0  0  0  0
  2 34  1  0  0  0  0
  3 28  1  0  0  0  0
  3 26  1  0  0  0  0
  3  4  1  0  0  0  0
  4  5  1  0  0  0  0
  5 29  1  0  0  0  0
  5  6  1  0  0  0  0
  5 24  1  0  0  0  0
  6 23  1  0  0  0  0
  6  7  1  0  0  0  0
  7  8  2  0  0  0  0
  7 35  1  0  0  0  0
  8  9  1  0  0  0  0
  9 23  2  0  0  0  0
  9 10  1  0  0  0  0
 10 11  1  0  0  0  0
 10 20  2  0  0  0  0
 11 19  1  0  0  0  0
 11 12  1  0  0  0  0
 12 13  1  0  0  0  0
 12 36  1  0  0  0  0
 12 37  1  0  0  0  0
 13 14  1  0  0  0  0
 13 38  1  0  0  0  0
 13 39  1  0  0  0  0
 14 19  2  0  0  0  0
 14 15  1  0  0  0  0
 15 16  2  0  0  0  0
 15 40  1  0  0  0  0
 16 17  1  0  0  0  0
 16 41  1  0  0  0  0
 17 18  2  0  0  0  0
 17 42  1  0  0  0  0
 18 19  1  0  0  0  0
 18 43  1  0  0  0  0
 20 21  1  0  0  0  0
 21 22  2  0  0  0  0
 21 44  1  0  0  0  0
 22 23  1  0  0  0  0
 24 30  1  0  0  0  0
 24 25  1  0  0  0  0
 24 26  1  0  0  0  0
 25 45  1  0  0  0  0
 26 31  1  0  0  0  0
 26 27  1  0  0  0  0
 27 46  1  0  0  0  0
M  END
> <s_m_source_file>
AV-unprocessed.smi

> <i_m_source_file_index>
110

> <i_lp_mmshare_version>
43012

> <i_f3d_flags>
0

> <s_epik_input>
W09IXVtDSDJdW0NASF0xT1tDQEhdKFtDQEhdKFtPSF0pW0NAQEhdMVtPSF0pbihbY0hdbjIpYyhjMjMpbltjSF1uYzNOKFtDSDJdW0NIMl00KWMoYzQ1KVtjSF1bY0hdW2NIXVtjSF01

> <s_epik_cmdline>
J2VwaWtfcHl0aG9uJywgJy1waCcsICc3LjAnLCAnLXRuJywgJzgnLCAnLW1hJywgJzIwMCcsICctbWV0YWxfYmluZGluZycsICctaW1hZScsICc8aW5maWxlLm1hZT4nLCAnLW9tYWUnLCAnPG91dGZpbGUubWFlPic=

> <r_lp_tautomer_probability>
1

> <r_epik_Ionization_Penalty>
0.00068475

> <r_epik_Ionization_Penalty_Charging>
0

> <r_epik_Ionization_Penalty_Neutral>
0.00068475

> <r_epik_State_Penalty>
0.000417442

> <r_epik_Charging_Adjusted_Penalty>
0.000417442

> <i_epik_Tot_Q>
0

> <i_epik_Tot_abs_Q>
0

> <r_epik_Metal_State_Penalty>
-0

> <b_epik_Metal_Only>
0

> <s_epik_Chemistry_Notes>
This compound contains an acetal/aminal-like group ( X-CH(R)-Y where X, Y are N, S, or O) that may be acid/base labile, releasing an aldehyde.

> <s_lp_Force_Field>
OPLS_2005

> <r_lp_Energy>
55.1552

> <b_lp_Chiralities_Consistent>
1

> <s_lp_Variant>
AV-unprocessed.smi:110-10

> <Gold.Version>
5.8.1

> <Gold.Id.Protein>
6NUR|6NUR_protein|mol2

> <Gold.PLP.Fitness>
64.9264

> <Gold.PLP.PLP>
-56.5921

> <Gold.PLP.part.hbond>
-6.1888

> <Gold.PLP.part.metal>
0.0000

> <Gold.PLP.part.buried>
-2.2085

> <Gold.PLP.part.nonpolar>
-50.3537

> <Gold.PLP.part.repulsive>
2.8032

> <Gold.PLP.ligand.clash>
0.0000

> <Gold.PLP.ligand.torsion>
0.3726

> <Gold.PLP.Chemscore.Hbond>
3.0000

> <Gold.PLP.Chemscore.CHOScore>
0.0000

> <Gold.PLP.Chemscore.Metal>
0.0000

> <Gold.Chemscore.Hbonds>
donor molecule, donor type, donor heavy atom, donor atom, acceptor molecule, acceptor atom, score
      L1  H     1    32       P1  7948  1.00
      L1  H    25    45       P1  7949  0.26
      P1  H 10752 10764       L1    25  0.81

> <Gold.PLP.Chemscore.Internal.Correction>
0.0794

> <Gold.Rescore>
     Score         DG    S(hbond)    S(metal)    S(lipo)     H(rot)  DE(clash)    DE(int)     intcor
     12.57     -14.66       1.20        0.00     118.17       3.38       0.27       1.82       ----

> <Gold.Chemscore.Fitness>
12.5690

> <Gold.Chemscore.DG>
-14.6621

> <Gold.Chemscore.ZeroCoef>
-5.4800

> <Gold.Chemscore.Hbond>
1.2032

> <Gold.Chemscore.Metal>
0.0000

> <Gold.Chemscore.Lipo>
118.1683

> <Gold.Chemscore.Internal_Hbond>
0.0000

> <Gold.Chemscore.DEClash>
0.2701

> <Gold.Chemscore.DEInternal>
1.8230

> <Gold.Chemscore.Rot>
3.3837

> <Gold.Chemscore.Internal.Correction>
   9.000000E+99

> <Gold.Chemscore.Hbonds>
donor molecule, donor type, donor heavy atom, donor atom, acceptor molecule, acceptor atom, score
      L1  H     1    32       P1  7948  1.00
      L1  H    25    45       P1  7949  0.02
      P1  H 10752 10764       L1    25  0.39

> <Gold.Chemscore.Hbond.Weighted>
-4.0186

> <Gold.Chemscore.Metal.Weighted>
-0.0000

> <Gold.Chemscore.Lipo.Weighted>
-13.8257

> <Gold.Chemscore.Internal_Hbond.Weighted>
0.0000

> <Gold.Chemscore.DEClash.Weighted>
0.2701

> <Gold.Chemscore.DEInternal.Weighted>
1.8230

> <Gold.Chemscore.Rot.Weighted>
8.6622

> <Gold.Chemscore.Internal.Correction.Weighted>
   9.000000E+99

> <Gold.Protein.RotatedTorsions>
[ 6907 6896 6895 6894 ] final  144.49 input  -60.11 | X-H torsion
[ 7974 7965 7964 7962 ] final   95.51 input  175.53 | X-H torsion
[ 8008 7997 7996 7995 ] final -114.57 input   59.86 | X-H torsion
[ 10167 10162 10161 10158 ] final   53.84 input  -65.29 | X-H torsion
[ 10718 10713 10712 10709 ] final  -39.63 input   66.30 | X-H torsion
[ 10763 10752 10751 10750 ] final  -56.41 input  -60.55 | X-H torsion
[ 11005 11000 10999 10996 ] final -155.62 input  -57.11 | X-H torsion

> <Gold.Protein.ActiveResidues>
 VAL166  LYS551  ARG553  GLY616  TRP617  ASP618  TYR619  PRO620  LYS621  CYS622 
 ASP623  PHE694  ASN695  SER759  ASP760  ASP761  ALA762  ILE779  LEU786  VAL792 
 PHE793  MET794  SER795  GLU796  ALA797  LYS798  CYS799  TRP800  GLU811  SER814 

> <Gold.Protein.RotatedAtoms>
  152.1930  133.4786  159.5017 H   0  0  0  0  0  0  0  0  0  0  0  0  # atno 6907 bound_to 6896
  150.6955  134.1688  159.4213 H   0  0  0  0  0  0  0  0  0  0  0  0  # atno 6908 bound_to 6896
  151.9603  135.0126  160.0598 H   0  0  0  0  0  0  0  0  0  0  0  0  # atno 6909 bound_to 6896
  145.4512  139.2293  143.3039 H   0  0  0  0  0  0  0  0  0  0  0  0  # atno 7974 bound_to 7965
  155.0384  140.0392  157.2500 H   0  0  0  0  0  0  0  0  0  0  0  0  # atno 8008 bound_to 7997
  154.7237  140.2717  155.6494 H   0  0  0  0  0  0  0  0  0  0  0  0  # atno 8009 bound_to 7997
  156.2823  140.2698  156.1917 H   0  0  0  0  0  0  0  0  0  0  0  0  # atno 8010 bound_to 7997
  140.2365  144.3631  150.6395 H   0  0  0  0  0  0  0  0  0  0  0  0  # atno 10167 bound_to 10162
  156.2903  130.4227  149.8245 H   0  0  0  0  0  0  0  0  0  0  0  0  # atno 10718 bound_to 10713
  154.2061  135.6402  153.5101 H   0  0  0  0  0  0  0  0  0  0  0  0  # atno 10763 bound_to 10752
  153.0000  135.5463  154.6264 H   0  0  0  0  0  0  0  0  0  0  0  0  # atno 10764 bound_to 10752
  154.5689  135.2915  155.0820 H   0  0  0  0  0  0  0  0  0  0  0  0  # atno 10765 bound_to 10752
  140.6845  134.4108  157.5224 H   0  0  0  0  0  0  0  0  0  0  0  0  # atno 11005 bound_to 11000
  146.2503  140.5271  142.8896 LP  0  0  0  0  0  0  0  0  0  0  0  0  # atno 17320 bound_to 7965
  144.8060  140.6301  143.6446 LP  0  0  0  0  0  0  0  0  0  0  0  0  # atno 17321 bound_to 7965
  140.6146  143.2171  151.6817 LP  0  0  0  0  0  0  0  0  0  0  0  0  # atno 17342 bound_to 10162
  139.5092  144.3585  152.0585 LP  0  0  0  0  0  0  0  0  0  0  0  0  # atno 17343 bound_to 10162
  156.5661  130.8404  151.3343 LP  0  0  0  0  0  0  0  0  0  0  0  0  # atno 17370 bound_to 10713
  157.7340  130.9740  150.2008 LP  0  0  0  0  0  0  0  0  0  0  0  0  # atno 17371 bound_to 10713
  139.8942  134.8713  156.2190 LP  0  0  0  0  0  0  0  0  0  0  0  0  # atno 17394 bound_to 11000
  141.0291  133.6999  156.1398 LP  0  0  0  0  0  0  0  0  0  0  0  0  # atno 17395 bound_to 11000

$$$$
