AV-unprocessed.smi:2228|AV-procd|sdf|9025|dock3
  -GOLD-   2272012233D 1   1.00000     0.00000
 Structure written by MMmdl.
 40 41  0  0  0  0  0  0  0  0  1 V2000
  146.2721  142.5917  154.7286 C   0  0  0  0  0  0  0  0  0  0  0  0
  146.5448  141.3814  155.4175 O   0  0  0  0  0  0  0  0  0  0  0  0
  147.2692  140.4371  154.6390 C   0  0  2  0  0  0  0  0  0  0  0  0
  147.7035  139.2450  155.4889 C   0  0  0  0  0  0  0  0  0  0  0  0
  148.8098  138.5892  154.6633 C   0  0  0  0  0  0  0  0  0  0  0  0
  149.5010  139.7358  153.9107 C   0  0  0  0  0  0  0  0  0  0  0  0
  148.5847  140.9692  154.0379 C   0  0  2  0  0  0  0  0  0  0  0  0
  149.2024  141.9648  154.9157 N   0  0  0  0  0  0  0  0  0  0  0  0
  149.9009  141.7059  156.0305 C   0  0  0  0  0  0  0  0  0  0  0  0
  150.0972  140.5704  156.4648 O   0  0  0  0  0  0  0  0  0  0  0  0
  150.3480  142.8416  156.5944 N   0  0  0  0  0  0  0  0  0  0  0  0
  151.1537  142.9882  157.7546 C   0  0  0  0  0  0  0  0  0  0  0  0
  151.1413  144.2771  158.3332 C   0  0  0  0  0  0  0  0  0  0  0  0
  151.9119  144.5285  159.4862 C   0  0  0  0  0  0  0  0  0  0  0  0
  151.9110  145.9024  160.1228 C   0  0  0  0  0  0  0  0  0  0  0  0
  152.6776  143.4794  160.0301 C   0  0  0  0  0  0  0  0  0  0  0  0
  152.6355  142.2252  159.3905 C   0  0  0  0  0  0  0  0  0  0  0  0
  153.4345  141.0533  159.9206 C   0  0  0  0  0  0  0  0  0  0  0  0
  151.8956  141.9854  158.2869 N   0  0  0  0  0  0  0  0  0  0  0  0
  145.7284  143.2699  155.3859 H   0  0  0  0  0  0  0  0  0  0  0  0
  145.6549  142.4125  153.8473 H   0  0  0  0  0  0  0  0  0  0  0  0
  147.1877  143.0933  154.4150 H   0  0  0  0  0  0  0  0  0  0  0  0
  146.6350  140.0550  153.8361 H   0  0  0  0  0  0  0  0  0  0  0  0
  148.1113  139.5938  156.4388 H   0  0  0  0  0  0  0  0  0  0  0  0
  146.8812  138.5636  155.7085 H   0  0  0  0  0  0  0  0  0  0  0  0
  149.5037  138.0205  155.2827 H   0  0  0  0  0  0  0  0  0  0  0  0
  148.3669  137.8971  153.9460 H   0  0  0  0  0  0  0  0  0  0  0  0
  150.4927  139.9272  154.3240 H   0  0  0  0  0  0  0  0  0  0  0  0
  149.6442  139.4652  152.8640 H   0  0  0  0  0  0  0  0  0  0  0  0
  148.3903  141.3943  153.0519 H   0  0  0  0  0  0  0  0  0  0  0  0
  149.1006  142.9298  154.6375 H   0  0  0  0  0  0  0  0  0  0  0  0
  150.0919  143.7018  156.1330 H   0  0  0  0  0  0  0  0  0  0  0  0
  150.5468  145.0681  157.8988 H   0  0  0  0  0  0  0  0  0  0  0  0
  152.6262  145.9596  160.9439 H   0  0  0  0  0  0  0  0  0  0  0  0
  150.9207  146.1354  160.5146 H   0  0  0  0  0  0  0  0  0  0  0  0
  152.1777  146.6610  159.3864 H   0  0  0  0  0  0  0  0  0  0  0  0
  153.2808  143.6314  160.9133 H   0  0  0  0  0  0  0  0  0  0  0  0
  154.1324  141.3697  160.6963 H   0  0  0  0  0  0  0  0  0  0  0  0
  154.0082  140.5879  159.1185 H   0  0  0  0  0  0  0  0  0  0  0  0
  152.7670  140.3034  160.3458 H   0  0  0  0  0  0  0  0  0  0  0  0
  1  2  1  0  0  0  0
  1 20  1  0  0  0  0
  1 21  1  0  0  0  0
  1 22  1  0  0  0  0
  2  3  1  0  0  0  0
  3  7  1  0  0  0  0
  3  4  1  0  0  0  0
  3 23  1  0  0  0  0
  4  5  1  0  0  0  0
  4 24  1  0  0  0  0
  4 25  1  0  0  0  0
  5  6  1  0  0  0  0
  5 26  1  0  0  0  0
  5 27  1  0  0  0  0
  6  7  1  0  0  0  0
  6 28  1  0  0  0  0
  6 29  1  0  0  0  0
  7  8  1  0  0  0  0
  7 30  1  0  0  0  0
  8  9  1  0  0  0  0
  8 31  1  0  0  0  0
  9 10  2  0  0  0  0
  9 11  1  0  0  0  0
 11 12  1  0  0  0  0
 11 32  1  0  0  0  0
 12 19  1  0  0  0  0
 12 13  2  0  0  0  0
 13 14  1  0  0  0  0
 13 33  1  0  0  0  0
 14 15  1  0  0  0  0
 14 16  2  0  0  0  0
 15 34  1  0  0  0  0
 15 35  1  0  0  0  0
 15 36  1  0  0  0  0
 16 17  1  0  0  0  0
 16 37  1  0  0  0  0
 17 18  1  0  0  0  0
 17 19  2  0  0  0  0
 18 38  1  0  0  0  0
 18 39  1  0  0  0  0
 18 40  1  0  0  0  0
M  END
> <s_m_source_file>
AV-unprocessed.smi

> <i_m_source_file_index>
2228

> <i_lp_mmshare_version>
43012

> <i_f3d_flags>
0

> <s_epik_input>
W0NIM11PW0NAQEhdMVtDSDJdW0NIMl1bQ0gyXVtDQEhdMVtOSF1DKD1PKVtOSF1jMltjSF1jKFtDSDNdKVtjSF1jKG4yKVtDSDNd

> <s_epik_cmdline>
J2VwaWtfcHl0aG9uJywgJy1waCcsICc3LjAnLCAnLXRuJywgJzgnLCAnLW1hJywgJzIwMCcsICctbWV0YWxfYmluZGluZycsICctaW1hZScsICc8aW5maWxlLm1hZT4nLCAnLW9tYWUnLCAnPG91dGZpbGUubWFlPic=

> <r_lp_tautomer_probability>
1

> <r_epik_Ionization_Penalty>
0.000275391

> <r_epik_Ionization_Penalty_Charging>
0

> <r_epik_Ionization_Penalty_Neutral>
0.000275391

> <r_epik_State_Penalty>
-0

> <r_epik_Charging_Adjusted_Penalty>
0

> <i_epik_Tot_Q>
0

> <i_epik_Tot_abs_Q>
0

> <r_epik_Metal_State_Penalty>
-0

> <b_epik_Metal_Only>
0

> <s_lp_Force_Field>
OPLS_2005

> <r_lp_Energy>
22.5383

> <b_lp_Chiralities_Consistent>
1

> <s_lp_Variant>
AV-unprocessed.smi:2228-3

> <Gold.Version>
5.8.1

> <Gold.Id.Protein>
6NUR|6NUR_protein|mol2

> <Gold.PLP.Fitness>
43.4184

> <Gold.PLP.PLP>
-39.0689

> <Gold.PLP.part.hbond>
-2.0000

> <Gold.PLP.part.metal>
0.0000

> <Gold.PLP.part.buried>
-1.6132

> <Gold.PLP.part.nonpolar>
-35.8973

> <Gold.PLP.part.repulsive>
0.4008

> <Gold.PLP.ligand.clash>
0.0000

> <Gold.PLP.ligand.torsion>
0.3721

> <Gold.PLP.Chemscore.Hbond>
1.6940

> <Gold.PLP.Chemscore.CHOScore>
0.0000

> <Gold.PLP.Chemscore.Metal>
0.0000

> <Gold.Chemscore.Hbonds>
donor molecule, donor type, donor heavy atom, donor atom, acceptor molecule, acceptor atom, score
      L1  H     8    31       P1  8028  0.68
      L1  H    11    32       P1  8028  0.98

> <Gold.PLP.Chemscore.Internal.Correction>
0.0116

> <Gold.Rescore>
     Score         DG    S(hbond)    S(metal)    S(lipo)     H(rot)  DE(clash)    DE(int)     intcor
     12.73     -19.58       1.80        0.00      95.75       1.21       1.46       5.39       ----

> <Gold.Chemscore.Fitness>
12.7278

> <Gold.Chemscore.DG>
-19.5829

> <Gold.Chemscore.ZeroCoef>
-5.4800

> <Gold.Chemscore.Hbond>
1.7973

> <Gold.Chemscore.Metal>
0.0000

> <Gold.Chemscore.Lipo>
95.7470

> <Gold.Chemscore.Internal_Hbond>
0.0000

> <Gold.Chemscore.DEClash>
1.4612

> <Gold.Chemscore.DEInternal>
5.3938

> <Gold.Chemscore.Rot>
1.2119

> <Gold.Chemscore.Internal.Correction>
   9.000000E+99

> <Gold.Chemscore.Hbonds>
donor molecule, donor type, donor heavy atom, donor atom, acceptor molecule, acceptor atom, score
      L1  H     8    31       P1  8028  0.65
      L1  H    11    32       P1  8028  0.93

> <Gold.Chemscore.Hbond.Weighted>
-6.0030

> <Gold.Chemscore.Metal.Weighted>
-0.0000

> <Gold.Chemscore.Lipo.Weighted>
-11.2024

> <Gold.Chemscore.Internal_Hbond.Weighted>
0.0000

> <Gold.Chemscore.DEClash.Weighted>
1.4612

> <Gold.Chemscore.DEInternal.Weighted>
5.3938

> <Gold.Chemscore.Rot.Weighted>
3.1026

> <Gold.Chemscore.Internal.Correction.Weighted>
   9.000000E+99

> <Gold.Protein.RotatedTorsions>
[ 6907 6896 6895 6894 ] final -173.18 input  -60.11 | X-H torsion
[ 7974 7965 7964 7962 ] final   10.17 input  175.53 | X-H torsion
[ 8008 7997 7996 7995 ] final   95.30 input   59.86 | X-H torsion
[ 10167 10162 10161 10158 ] final   22.61 input  -65.29 | X-H torsion
[ 10718 10713 10712 10709 ] final  -20.93 input   66.30 | X-H torsion
[ 10763 10752 10751 10750 ] final   81.38 input  -60.55 | X-H torsion
[ 11005 11000 10999 10996 ] final  166.70 input  -57.11 | X-H torsion

> <Gold.Protein.ActiveResidues>
 VAL166  LYS551  ARG553  GLY616  TRP617  ASP618  TYR619  PRO620  LYS621  CYS622 
 ASP623  PHE694  ASN695  SER759  ASP760  ASP761  ALA762  ILE779  LEU786  VAL792 
 PHE793  MET794  SER795  GLU796  ALA797  LYS798  CYS799  TRP800  GLU811  SER814 

> <Gold.Protein.RotatedAtoms>
  151.5521  133.3416  159.2954 H   0  0  0  0  0  0  0  0  0  0  0  0  # atno 6907 bound_to 6896
  150.8473  134.7788  159.6991 H   0  0  0  0  0  0  0  0  0  0  0  0  # atno 6908 bound_to 6896
  152.4527  134.5366  159.9878 H   0  0  0  0  0  0  0  0  0  0  0  0  # atno 6909 bound_to 6896
  146.2392  139.9674  142.8451 H   0  0  0  0  0  0  0  0  0  0  0  0  # atno 7974 bound_to 7965
  156.0674  140.3288  155.7534 H   0  0  0  0  0  0  0  0  0  0  0  0  # atno 8008 bound_to 7997
  155.5360  140.0597  157.2897 H   0  0  0  0  0  0  0  0  0  0  0  0  # atno 8009 bound_to 7997
  154.4512  140.1919  156.0531 H   0  0  0  0  0  0  0  0  0  0  0  0  # atno 8010 bound_to 7997
  140.5335  143.9801  150.6478 H   0  0  0  0  0  0  0  0  0  0  0  0  # atno 10167 bound_to 10162
  156.5251  130.4641  149.6576 H   0  0  0  0  0  0  0  0  0  0  0  0  # atno 10718 bound_to 10713
  153.1112  135.4768  154.9037 H   0  0  0  0  0  0  0  0  0  0  0  0  # atno 10763 bound_to 10752
  154.7482  135.3099  154.8608 H   0  0  0  0  0  0  0  0  0  0  0  0  # atno 10764 bound_to 10752
  153.9197  135.6856  153.4801 H   0  0  0  0  0  0  0  0  0  0  0  0  # atno 10765 bound_to 10752
  140.2692  134.7840  157.3660 H   0  0  0  0  0  0  0  0  0  0  0  0  # atno 11005 bound_to 11000
  145.1713  140.9722  143.4320 LP  0  0  0  0  0  0  0  0  0  0  0  0  # atno 17320 bound_to 7965
  145.0026  139.3584  143.6160 LP  0  0  0  0  0  0  0  0  0  0  0  0  # atno 17321 bound_to 7965
  140.3182  143.3154  152.0811 LP  0  0  0  0  0  0  0  0  0  0  0  0  # atno 17342 bound_to 10162
  139.4962  144.6591  151.6505 LP  0  0  0  0  0  0  0  0  0  0  0  0  # atno 17343 bound_to 10162
  156.3112  130.7230  151.2123 LP  0  0  0  0  0  0  0  0  0  0  0  0  # atno 17370 bound_to 10713
  157.7431  131.0480  150.4976 LP  0  0  0  0  0  0  0  0  0  0  0  0  # atno 17371 bound_to 10713
  140.1390  134.4997  155.8046 LP  0  0  0  0  0  0  0  0  0  0  0  0  # atno 17394 bound_to 11000
  141.2180  133.6818  156.7175 LP  0  0  0  0  0  0  0  0  0  0  0  0  # atno 17395 bound_to 11000

$$$$
