AV-unprocessed.smi:2035|AV-procd|sdf|8271|dock8
  -GOLD-   2272010543D 1   1.00000     0.00000
 Structure written by MMmdl.
 35 36  0  0  0  0  0  0  0  0  2 V2000
  149.9634  140.5197  156.8530 O   0  0  0  0  0  0  0  0  0  0  0  0
  149.7322  141.6289  156.3720 C   0  0  0  0  0  0  0  0  0  0  0  0
  150.2954  142.7807  156.7759 N   0  0  0  0  0  0  0  0  0  0  0  0
  151.2544  142.9745  157.8064 C   0  0  0  0  0  0  0  0  0  0  0  0
  151.5649  144.3026  158.1736 C   0  0  0  0  0  0  0  0  0  0  0  0
  152.5029  144.5389  159.1993 C   0  0  0  0  0  0  0  0  0  0  0  0
  153.0870  143.4971  159.8295 N   0  3  0  0  0  0  0  0  0  0  0  0
  152.8092  142.2110  159.5256 C   0  0  0  0  0  0  0  0  0  0  0  0
  151.8799  141.9128  158.5080 C   0  0  0  0  0  0  0  0  0  0  0  0
  148.8918  141.8320  155.3471 N   0  0  0  0  0  0  0  0  0  0  0  0
  148.1264  140.7963  154.6531 C   0  0  2  0  0  0  0  0  0  0  0  0
  147.0053  140.2414  155.5696 C   0  0  0  0  0  0  0  0  0  0  0  0
  146.5173  138.8117  155.2560 C   0  0  0  0  0  0  0  0  0  0  0  0
  146.0703  138.5674  153.8004 C   0  0  0  0  0  0  0  0  0  0  0  0
  147.0963  138.9057  152.6924 C   0  0  0  0  0  0  0  0  0  0  0  0
  148.4908  138.8821  153.1323 N   0  0  0  0  0  0  0  0  0  0  0  0
  149.0422  139.7352  154.0129 C   0  0  0  0  0  0  0  0  0  0  0  0
  150.2320  139.6636  154.3179 O   0  0  0  0  0  0  0  0  0  0  0  0
  150.0719  143.5991  156.2285 H   0  0  0  0  0  0  0  0  0  0  0  0
  151.0968  145.1360  157.6696 H   0  0  0  0  0  0  0  0  0  0  0  0
  152.8002  145.5225  159.5325 H   0  0  0  0  0  0  0  0  0  0  0  0
  153.3306  141.4633  160.1053 H   0  0  0  0  0  0  0  0  0  0  0  0
  151.6565  140.8788  158.2927 H   0  0  0  0  0  0  0  0  0  0  0  0
  148.7591  142.7775  155.0183 H   0  0  0  0  0  0  0  0  0  0  0  0
  147.6426  141.2941  153.8117 H   0  0  0  0  0  0  0  0  0  0  0  0
  147.3493  140.2480  156.6049 H   0  0  0  0  0  0  0  0  0  0  0  0
  146.1555  140.9245  155.5399 H   0  0  0  0  0  0  0  0  0  0  0  0
  147.2986  138.0970  155.5175 H   0  0  0  0  0  0  0  0  0  0  0  0
  145.6859  138.5747  155.9204 H   0  0  0  0  0  0  0  0  0  0  0  0
  145.8049  137.5133  153.7118 H   0  0  0  0  0  0  0  0  0  0  0  0
  145.1480  139.1156  153.6056 H   0  0  0  0  0  0  0  0  0  0  0  0
  146.9842  138.2025  151.8669 H   0  0  0  0  0  0  0  0  0  0  0  0
  146.8748  139.8843  152.2652 H   0  0  0  0  0  0  0  0  0  0  0  0
  149.0864  138.1761  152.7238 H   0  0  0  0  0  0  0  0  0  0  0  0
  153.7626  143.6893  160.5698 H   0  0  0  0  0  0  0  0  0  0  0  0
  1  2  2  0  0  0  0
  2  3  1  0  0  0  0
  2 10  1  0  0  0  0
  3  4  1  0  0  0  0
  3 19  1  0  0  0  0
  4  9  1  0  0  0  0
  4  5  2  0  0  0  0
  5  6  1  0  0  0  0
  5 20  1  0  0  0  0
  6  7  2  0  0  0  0
  6 21  1  0  0  0  0
  7  8  1  0  0  0  0
  7 35  1  0  0  0  0
  8  9  2  0  0  0  0
  8 22  1  0  0  0  0
  9 23  1  0  0  0  0
 10 11  1  0  0  0  0
 10 24  1  0  0  0  0
 11 17  1  0  0  0  0
 11 12  1  0  0  0  0
 11 25  1  0  0  0  0
 12 13  1  0  0  0  0
 12 26  1  0  0  0  0
 12 27  1  0  0  0  0
 13 14  1  0  0  0  0
 13 28  1  0  0  0  0
 13 29  1  0  0  0  0
 14 15  1  0  0  0  0
 14 30  1  0  0  0  0
 14 31  1  0  0  0  0
 15 16  1  0  0  0  0
 15 32  1  0  0  0  0
 15 33  1  0  0  0  0
 16 17  1  0  0  0  0
 16 34  1  0  0  0  0
 17 18  2  0  0  0  0
M  CHG  1   7   1
M  END
> <s_m_source_file>
AV-unprocessed.smi

> <i_m_source_file_index>
2035

> <i_lp_mmshare_version>
43012

> <i_f3d_flags>
0

> <s_epik_input>
W2NIXTFbY0hdbltjSF1bY0hdYzFbTkhdQyg9TylbTkhdW0NAQEhdMltDSDJdW0NIMl1bQ0gyXVtDSDJdW05IXUMyPU8=

> <s_epik_cmdline>
J2VwaWtfcHl0aG9uJywgJy1waCcsICc3LjAnLCAnLXRuJywgJzgnLCAnLW1hJywgJzIwMCcsICctbWV0YWxfYmluZGluZycsICctaW1hZScsICc8aW5maWxlLm1hZT4nLCAnLW9tYWUnLCAnPG91dGZpbGUubWFlPic=

> <r_epik_Ionization_Penalty>
1.10339

> <r_epik_Ionization_Penalty_Charging>
1.10337

> <r_epik_Ionization_Penalty_Neutral>
1.85869e-05

> <r_epik_State_Penalty>
1.16071

> <r_epik_Charging_Adjusted_Penalty>
2.26408

> <i_epik_Tot_Q>
1

> <i_epik_Tot_abs_Q>
1

> <r_epik_Metal_State_Penalty>
1.24751

> <b_epik_Metal_Only>
0

> <s_lp_Force_Field>
OPLS_2005

> <r_lp_Energy>
25.3939

> <b_lp_Chiralities_Consistent>
1

> <s_lp_Variant>
AV-unprocessed.smi:2035-3

> <Gold.Version>
5.8.1

> <Gold.Id.Protein>
6NUR|6NUR_protein|mol2

> <Gold.PLP.Fitness>
42.5963

> <Gold.PLP.PLP>
-32.0605

> <Gold.PLP.part.hbond>
-5.0000

> <Gold.PLP.part.metal>
0.0000

> <Gold.PLP.part.buried>
-3.7227

> <Gold.PLP.part.nonpolar>
-25.1630

> <Gold.PLP.part.repulsive>
0.4302

> <Gold.PLP.ligand.clash>
0.0000

> <Gold.PLP.ligand.torsion>
0.0617

> <Gold.PLP.Chemscore.Hbond>
3.5356

> <Gold.PLP.Chemscore.CHOScore>
0.0000

> <Gold.PLP.Chemscore.Metal>
0.0000

> <Gold.Chemscore.Hbonds>
donor molecule, donor type, donor heavy atom, donor atom, acceptor molecule, acceptor atom, score
      L1  H     3    19       P1  8028  0.99
      L1  H    10    24       P1  8028  0.84
      L1  H    16    34       P1  7948  0.69
      P1  H  7989  7998       L1    18  1.00

> <Gold.PLP.Chemscore.Internal.Correction>
0.0523

> <Gold.Rescore>
     Score         DG    S(hbond)    S(metal)    S(lipo)     H(rot)  DE(clash)    DE(int)     intcor
     18.45     -22.64       3.34        0.00      73.35       1.00       0.12       4.08       ----

> <Gold.Chemscore.Fitness>
18.4472

> <Gold.Chemscore.DG>
-22.6445

> <Gold.Chemscore.ZeroCoef>
-5.4800

> <Gold.Chemscore.Hbond>
3.3362

> <Gold.Chemscore.Metal>
0.0000

> <Gold.Chemscore.Lipo>
73.3478

> <Gold.Chemscore.Internal_Hbond>
0.0000

> <Gold.Chemscore.DEClash>
0.1214

> <Gold.Chemscore.DEInternal>
4.0759

> <Gold.Chemscore.Rot>
1.0000

> <Gold.Chemscore.Internal.Correction>
   9.000000E+99

> <Gold.Chemscore.Hbonds>
donor molecule, donor type, donor heavy atom, donor atom, acceptor molecule, acceptor atom, score
      L1  H     3    19       P1  8028  0.94
      L1  H    10    24       P1  8028  0.77
      L1  H    16    34       P1  7948  0.66
      P1  H  7989  7998       L1    18  0.93

> <Gold.Chemscore.Hbond.Weighted>
-11.1428

> <Gold.Chemscore.Metal.Weighted>
-0.0000

> <Gold.Chemscore.Lipo.Weighted>
-8.5817

> <Gold.Chemscore.Internal_Hbond.Weighted>
0.0000

> <Gold.Chemscore.DEClash.Weighted>
0.1214

> <Gold.Chemscore.DEInternal.Weighted>
4.0759

> <Gold.Chemscore.Rot.Weighted>
2.5600

> <Gold.Chemscore.Internal.Correction.Weighted>
   9.000000E+99

> <Gold.Protein.RotatedTorsions>
[ 6907 6896 6895 6894 ] final  -67.92 input  -60.11 | X-H torsion
[ 7974 7965 7964 7962 ] final   78.43 input  175.53 | X-H torsion
[ 8008 7997 7996 7995 ] final   38.75 input   59.86 | X-H torsion
[ 10167 10162 10161 10158 ] final  160.10 input  -65.29 | X-H torsion
[ 10718 10713 10712 10709 ] final   99.70 input   66.30 | X-H torsion
[ 10763 10752 10751 10750 ] final  166.51 input  -60.55 | X-H torsion
[ 11005 11000 10999 10996 ] final  170.89 input  -57.11 | X-H torsion

> <Gold.Protein.ActiveResidues>
 VAL166  LYS551  ARG553  GLY616  TRP617  ASP618  TYR619  PRO620  LYS621  CYS622 
 ASP623  PHE694  ASN695  SER759  ASP760  ASP761  ALA762  ILE779  LEU786  VAL792 
 PHE793  MET794  SER795  GLU796  ALA797  LYS798  CYS799  TRP800  GLU811  SER814 

> <Gold.Protein.RotatedAtoms>
  150.7383  134.5813  159.5939 H   0  0  0  0  0  0  0  0  0  0  0  0  # atno 6907 bound_to 6896
  152.3226  134.7358  160.0319 H   0  0  0  0  0  0  0  0  0  0  0  0  # atno 6908 bound_to 6896
  151.7869  133.3319  159.3524 H   0  0  0  0  0  0  0  0  0  0  0  0  # atno 6909 bound_to 6896
  145.6772  139.2513  143.1834 H   0  0  0  0  0  0  0  0  0  0  0  0  # atno 7974 bound_to 7965
  155.2254  140.3334  155.4310 H   0  0  0  0  0  0  0  0  0  0  0  0  # atno 8008 bound_to 7997
  156.2316  140.1853  156.7273 H   0  0  0  0  0  0  0  0  0  0  0  0  # atno 8009 bound_to 7997
  154.5988  140.0626  156.9326 H   0  0  0  0  0  0  0  0  0  0  0  0  # atno 8010 bound_to 7997
  139.4837  144.4666  151.8633 H   0  0  0  0  0  0  0  0  0  0  0  0  # atno 10167 bound_to 10162
  157.6870  131.0677  150.4988 H   0  0  0  0  0  0  0  0  0  0  0  0  # atno 10718 bound_to 10713
  154.3401  135.2754  155.2427 H   0  0  0  0  0  0  0  0  0  0  0  0  # atno 10763 bound_to 10752
  154.4701  135.5885  153.6319 H   0  0  0  0  0  0  0  0  0  0  0  0  # atno 10764 bound_to 10752
  152.9858  135.6086  154.3601 H   0  0  0  0  0  0  0  0  0  0  0  0  # atno 10765 bound_to 10752
  140.3131  134.7500  157.4007 H   0  0  0  0  0  0  0  0  0  0  0  0  # atno 11005 bound_to 11000
  146.0995  140.7561  142.9556 LP  0  0  0  0  0  0  0  0  0  0  0  0  # atno 17320 bound_to 7965
  144.7037  140.3764  143.7135 LP  0  0  0  0  0  0  0  0  0  0  0  0  # atno 17321 bound_to 7965
  140.4132  144.2341  150.5888 LP  0  0  0  0  0  0  0  0  0  0  0  0  # atno 17342 bound_to 10162
  140.4946  143.2336  151.8768 LP  0  0  0  0  0  0  0  0  0  0  0  0  # atno 17343 bound_to 10162
  156.5311  130.4185  149.6201 LP  0  0  0  0  0  0  0  0  0  0  0  0  # atno 17370 bound_to 10713
  156.3068  130.7207  151.2091 LP  0  0  0  0  0  0  0  0  0  0  0  0  # atno 17371 bound_to 10713
  140.1007  134.5477  155.8356 LP  0  0  0  0  0  0  0  0  0  0  0  0  # atno 17394 bound_to 11000
  141.2103  133.6694  156.6504 LP  0  0  0  0  0  0  0  0  0  0  0  0  # atno 17395 bound_to 11000

$$$$
