AV-unprocessed.smi:21|AV-procd|sdf|143|dock10
  -GOLD-   2262015353D 1   1.00000     0.00000
 Structure written by MMmdl.
 62 65  0  0  0  0  0  0  0  0  2 V2000
  144.9538  133.7653  150.1780 C   0  0  0  0  0  0  0  0  0  0  0  0
  146.1334  133.9276  150.9496 O   0  0  0  0  0  0  0  0  0  0  0  0
  146.2338  133.0225  152.0414 C   0  0  1  0  0  0  0  0  0  0  0  0
  147.3633  133.4910  152.9493 C   0  0  0  0  0  0  0  0  0  0  0  0
  146.7033  134.5550  153.8316 C   0  0  2  0  0  0  0  0  0  0  0  0
  147.4246  134.7958  155.1747 C   0  0  0  0  0  0  0  0  0  0  0  0
  148.7008  135.4942  155.0170 N   0  0  0  0  0  0  0  0  0  0  0  0
  149.9078  134.7011  154.8233 C   0  0  0  0  0  0  0  0  0  0  0  0
  148.8066  136.7628  155.4947 C   0  0  0  0  0  0  0  0  0  0  0  0
  147.7227  137.2984  156.1146 N   0  0  0  0  0  0  0  0  0  0  0  0
  147.7682  138.5355  156.6154 C   0  0  0  0  0  0  0  0  0  0  0  0
  148.7872  139.3945  156.6189 N   0  0  0  0  0  0  0  0  0  0  0  0
  149.8865  138.8641  156.0120 C   0  0  0  0  0  0  0  0  0  0  0  0
  149.9805  137.5718  155.4186 C   0  0  0  0  0  0  0  0  0  0  0  0
  151.2594  137.3898  154.9051 N   0  0  0  0  0  0  0  0  0  0  0  0
  151.8782  138.5066  155.1698 C   0  0  0  0  0  0  0  0  0  0  0  0
  151.1356  139.4419  155.8537 N   0  0  0  0  0  0  0  0  0  0  0  0
  151.5766  140.7609  156.2876 C   0  0  0  0  0  0  0  0  0  0  0  0
  151.5081  140.9898  157.8235 C   0  0  1  0  0  0  0  0  0  0  0  0
  152.0717  139.7891  158.6194 C   0  0  0  0  0  0  0  0  0  0  0  0
  153.3910  139.4914  158.2129 O   0  0  0  0  0  0  0  0  0  0  0  0
  152.1793  142.3208  158.2549 C   0  0  2  0  0  0  0  0  0  0  0  0
  152.3000  142.5264  159.7561 C   0  0  0  0  0  0  0  0  0  0  0  0
  152.5090  144.0337  159.8727 C   0  0  0  0  0  0  0  0  0  0  0  0
  151.8678  144.6079  158.7391 O   0  0  0  0  0  0  0  0  0  0  0  0
  151.3868  143.5784  157.8836 C   0  0  0  0  0  0  0  0  0  0  0  0
  145.3205  134.0663  154.0374 N   0  3  1  0  0  0  0  0  0  0  0  0
  144.3177  135.1401  154.2101 C   0  0  0  0  0  0  0  0  0  0  0  0
  144.9944  133.1182  152.9444 C   0  0  0  0  0  0  0  0  0  0  0  0
  146.4170  132.0070  151.6857 H   0  0  0  0  0  0  0  0  0  0  0  0
  146.6560  135.4855  153.2626 H   0  0  0  0  0  0  0  0  0  0  0  0
  144.9443  134.4980  149.3713 H   0  0  0  0  0  0  0  0  0  0  0  0
  144.0535  133.9142  150.7743 H   0  0  0  0  0  0  0  0  0  0  0  0
  144.9126  132.7728  149.7275 H   0  0  0  0  0  0  0  0  0  0  0  0
  147.7062  132.6560  153.5620 H   0  0  0  0  0  0  0  0  0  0  0  0
  148.2213  133.8694  152.3927 H   0  0  0  0  0  0  0  0  0  0  0  0
  146.7947  135.4103  155.8183 H   0  0  0  0  0  0  0  0  0  0  0  0
  147.5488  133.8536  155.7090 H   0  0  0  0  0  0  0  0  0  0  0  0
  150.7035  135.3008  154.3800 H   0  0  0  0  0  0  0  0  0  0  0  0
  149.7102  133.8663  154.1505 H   0  0  0  0  0  0  0  0  0  0  0  0
  150.2612  134.2940  155.7711 H   0  0  0  0  0  0  0  0  0  0  0  0
  146.8596  138.8858  157.0828 H   0  0  0  0  0  0  0  0  0  0  0  0
  152.9043  138.6713  154.8777 H   0  0  0  0  0  0  0  0  0  0  0  0
  152.5938  140.9134  155.9267 H   0  0  0  0  0  0  0  0  0  0  0  0
  150.9738  141.5078  155.7699 H   0  0  0  0  0  0  0  0  0  0  0  0
  150.4508  141.0709  158.0810 H   0  0  0  0  0  0  0  0  0  0  0  0
  152.0489  139.9755  159.6930 H   0  0  0  0  0  0  0  0  0  0  0  0
  151.4804  138.8911  158.4447 H   0  0  0  0  0  0  0  0  0  0  0  0
  153.4980  138.5525  158.1987 H   0  0  0  0  0  0  0  0  0  0  0  0
  153.1797  142.3905  157.8252 H   0  0  0  0  0  0  0  0  0  0  0  0
  151.3730  142.2393  160.2549 H   0  0  0  0  0  0  0  0  0  0  0  0
  153.1179  141.9627  160.2058 H   0  0  0  0  0  0  0  0  0  0  0  0
  152.1068  144.4355  160.8030 H   0  0  0  0  0  0  0  0  0  0  0  0
  153.5712  144.2772  159.8293 H   0  0  0  0  0  0  0  0  0  0  0  0
  151.4956  143.8618  156.8377 H   0  0  0  0  0  0  0  0  0  0  0  0
  150.3237  143.4362  158.0824 H   0  0  0  0  0  0  0  0  0  0  0  0
  144.2468  135.7582  153.3140 H   0  0  0  0  0  0  0  0  0  0  0  0
  144.5795  135.7835  155.0503 H   0  0  0  0  0  0  0  0  0  0  0  0
  143.3344  134.7132  154.4099 H   0  0  0  0  0  0  0  0  0  0  0  0
  144.0986  133.4056  152.3930 H   0  0  0  0  0  0  0  0  0  0  0  0
  144.7912  132.1488  153.4005 H   0  0  0  0  0  0  0  0  0  0  0  0
  145.3295  133.5222  154.8883 H   0  0  0  0  0  0  0  0  0  0  0  0
  1  2  1  0  0  0  0
  1 32  1  0  0  0  0
  1 33  1  0  0  0  0
  1 34  1  0  0  0  0
  2  3  1  0  0  0  0
  3 30  1  0  0  0  0
  3 29  1  0  0  0  0
  3  4  1  0  0  0  0
  4  5  1  0  0  0  0
  4 35  1  0  0  0  0
  4 36  1  0  0  0  0
  5 31  1  0  0  0  0
  5  6  1  0  0  0  0
  5 27  1  0  0  0  0
  6  7  1  0  0  0  0
  6 37  1  0  0  0  0
  6 38  1  0  0  0  0
  7  8  1  0  0  0  0
  7  9  1  0  0  0  0
  8 39  1  0  0  0  0
  8 40  1  0  0  0  0
  8 41  1  0  0  0  0
  9 14  1  0  0  0  0
  9 10  2  0  0  0  0
 10 11  1  0  0  0  0
 11 12  2  0  0  0  0
 11 42  1  0  0  0  0
 12 13  1  0  0  0  0
 13 17  1  0  0  0  0
 13 14  2  0  0  0  0
 14 15  1  0  0  0  0
 15 16  2  0  0  0  0
 16 17  1  0  0  0  0
 16 43  1  0  0  0  0
 17 18  1  0  0  0  0
 18 19  1  0  0  0  0
 18 44  1  0  0  0  0
 18 45  1  0  0  0  0
 19 20  1  0  0  0  0
 19 22  1  0  0  0  0
 19 46  1  0  0  0  0
 20 21  1  0  0  0  0
 20 47  1  0  0  0  0
 20 48  1  0  0  0  0
 21 49  1  0  0  0  0
 22 26  1  0  0  0  0
 22 23  1  0  0  0  0
 22 50  1  0  0  0  0
 23 24  1  0  0  0  0
 23 51  1  0  0  0  0
 23 52  1  0  0  0  0
 24 25  1  0  0  0  0
 24 53  1  0  0  0  0
 24 54  1  0  0  0  0
 25 26  1  0  0  0  0
 26 55  1  0  0  0  0
 26 56  1  0  0  0  0
 27 28  1  0  0  0  0
 27 29  1  0  0  0  0
 27 62  1  0  0  0  0
 28 57  1  0  0  0  0
 28 58  1  0  0  0  0
 28 59  1  0  0  0  0
 29 60  1  0  0  0  0
 29 61  1  0  0  0  0
M  CHG  1  27   1
M  END
> <s_m_source_file>
AV-unprocessed.smi

> <i_m_source_file_index>
21

> <i_lp_mmshare_version>
43012

> <i_f3d_flags>
0

> <s_epik_input>
W0NIM11PW0NASF0xW0NIMl1bQ0BIXShOKFtDSDNdKVtDSDJdMSlbQ0gyXU4oW0NIM10pYyhuW2NIXW4yKWMoYzIzKW5bY0hdbjNbQ0gyXVtDQEhdKFtDSDJdW09IXSlbQ0BASF00W0NIMl1bQ0gyXU9bQ0gyXTQ=

> <s_epik_cmdline>
J2VwaWtfcHl0aG9uJywgJy1waCcsICc3LjAnLCAnLXRuJywgJzgnLCAnLW1hJywgJzIwMCcsICctbWV0YWxfYmluZGluZycsICctaW1hZScsICc8aW5maWxlLm1hZT4nLCAnLW9tYWUnLCAnPG91dGZpbGUubWFlPic=

> <r_lp_tautomer_probability>
1

> <r_epik_Ionization_Penalty>
0.0157465

> <r_epik_Ionization_Penalty_Charging>
0.015354

> <r_epik_Ionization_Penalty_Neutral>
0.000392529

> <r_epik_State_Penalty>
0.0120612

> <r_epik_Charging_Adjusted_Penalty>
0.0274152

> <i_epik_Tot_Q>
1

> <i_epik_Tot_abs_Q>
1

> <r_epik_Metal_State_Penalty>
0.0121253

> <b_epik_Metal_Only>
0

> <s_lp_Force_Field>
OPLS_2005

> <r_lp_Energy>
58.9185

> <b_lp_Chiralities_Consistent>
1

> <s_lp_Variant>
AV-unprocessed.smi:21-23

> <Gold.Version>
5.8.1

> <Gold.Id.Protein>
6NUR|6NUR_protein|mol2

> <Gold.PLP.Fitness>
45.6353

> <Gold.PLP.PLP>
-40.3744

> <Gold.PLP.part.hbond>
-2.0000

> <Gold.PLP.part.metal>
0.0000

> <Gold.PLP.part.buried>
-6.6157

> <Gold.PLP.part.nonpolar>
-31.8456

> <Gold.PLP.part.repulsive>
0.4515

> <Gold.PLP.ligand.clash>
0.0000

> <Gold.PLP.ligand.torsion>
0.7357

> <Gold.PLP.Chemscore.Hbond>
2.0000

> <Gold.PLP.Chemscore.CHOScore>
0.0000

> <Gold.PLP.Chemscore.Metal>
0.0000

> <Gold.Chemscore.Hbonds>
donor molecule, donor type, donor heavy atom, donor atom, acceptor molecule, acceptor atom, score
      P1  H  7997  8008       L1    21  1.00

> <Gold.PLP.Chemscore.Internal.Correction>
0.7323

> <Gold.Rescore>
     Score         DG    S(hbond)    S(metal)    S(lipo)     H(rot)  DE(clash)    DE(int)     intcor
     13.20     -15.29       1.81        0.00      99.37       3.08       0.16       1.93       ----

> <Gold.Chemscore.Fitness>
13.2041

> <Gold.Chemscore.DG>
-15.2863

> <Gold.Chemscore.ZeroCoef>
-5.4800

> <Gold.Chemscore.Hbond>
1.8124

> <Gold.Chemscore.Metal>
0.0000

> <Gold.Chemscore.Lipo>
99.3749

> <Gold.Chemscore.Internal_Hbond>
0.0000

> <Gold.Chemscore.DEClash>
0.1560

> <Gold.Chemscore.DEInternal>
1.9261

> <Gold.Chemscore.Rot>
3.0758

> <Gold.Chemscore.Internal.Correction>
   9.000000E+99

> <Gold.Chemscore.Hbonds>
donor molecule, donor type, donor heavy atom, donor atom, acceptor molecule, acceptor atom, score
      P1  H  7997  8008       L1    21  0.35
      P1  H 10752 10764       L1    15  0.02

> <Gold.Chemscore.Hbond.Weighted>
-6.0536

> <Gold.Chemscore.Metal.Weighted>
-0.0000

> <Gold.Chemscore.Lipo.Weighted>
-11.6269

> <Gold.Chemscore.Internal_Hbond.Weighted>
0.0000

> <Gold.Chemscore.DEClash.Weighted>
0.1560

> <Gold.Chemscore.DEInternal.Weighted>
1.9261

> <Gold.Chemscore.Rot.Weighted>
7.8741

> <Gold.Chemscore.Internal.Correction.Weighted>
   9.000000E+99

> <Gold.Protein.RotatedTorsions>
[ 6907 6896 6895 6894 ] final  173.38 input  -60.11 | X-H torsion
[ 7974 7965 7964 7962 ] final  100.55 input  175.53 | X-H torsion
[ 8008 7997 7996 7995 ] final  -99.11 input   59.86 | X-H torsion
[ 10167 10162 10161 10158 ] final -109.59 input  -65.29 | X-H torsion
[ 10718 10713 10712 10709 ] final   21.45 input   66.30 | X-H torsion
[ 10763 10752 10751 10750 ] final  -67.87 input  -60.55 | X-H torsion
[ 11005 11000 10999 10996 ] final -164.98 input  -57.11 | X-H torsion

> <Gold.Protein.ActiveResidues>
 VAL166  LYS551  ARG553  GLY616  TRP617  ASP618  TYR619  PRO620  LYS621  CYS622 
 ASP623  PHE694  ASN695  SER759  ASP760  ASP761  ALA762  ILE779  LEU786  VAL792 
 PHE793  MET794  SER795  GLU796  ALA797  LYS798  CYS799  TRP800  GLU811  SER814 

> <Gold.Protein.RotatedAtoms>
  151.7693  133.3340  159.3439 H   0  0  0  0  0  0  0  0  0  0  0  0  # atno 6907 bound_to 6896
  150.7468  134.6034  159.6058 H   0  0  0  0  0  0  0  0  0  0  0  0  # atno 6908 bound_to 6896
  152.3352  134.7209  160.0330 H   0  0  0  0  0  0  0  0  0  0  0  0  # atno 6909 bound_to 6896
  145.3841  139.2374  143.3387 H   0  0  0  0  0  0  0  0  0  0  0  0  # atno 7974 bound_to 7965
  154.8103  140.0450  157.1338 H   0  0  0  0  0  0  0  0  0  0  0  0  # atno 8008 bound_to 7997
  154.9376  140.3048  155.5116 H   0  0  0  0  0  0  0  0  0  0  0  0  # atno 8009 bound_to 7997
  156.2971  140.2311  156.4442 H   0  0  0  0  0  0  0  0  0  0  0  0  # atno 8010 bound_to 7997
  140.1536  143.4178  152.1476 H   0  0  0  0  0  0  0  0  0  0  0  0  # atno 10167 bound_to 10162
  157.1386  130.6622  149.5974 H   0  0  0  0  0  0  0  0  0  0  0  0  # atno 10718 bound_to 10713
  154.3807  135.6074  153.5789 H   0  0  0  0  0  0  0  0  0  0  0  0  # atno 10763 bound_to 10752
  152.9788  135.5860  154.4413 H   0  0  0  0  0  0  0  0  0  0  0  0  # atno 10764 bound_to 10752
  154.4182  135.2845  155.1971 H   0  0  0  0  0  0  0  0  0  0  0  0  # atno 10765 bound_to 10752
  140.5808  134.5143  157.5178 H   0  0  0  0  0  0  0  0  0  0  0  0  # atno 11005 bound_to 11000
  146.2828  140.4513  142.8769 LP  0  0  0  0  0  0  0  0  0  0  0  0  # atno 17320 bound_to 7965
  144.8487  140.6968  143.6182 LP  0  0  0  0  0  0  0  0  0  0  0  0  # atno 17321 bound_to 7965
  139.5414  144.7259  151.4722 LP  0  0  0  0  0  0  0  0  0  0  0  0  # atno 17342 bound_to 10162
  140.6687  143.8342  150.6972 LP  0  0  0  0  0  0  0  0  0  0  0  0  # atno 17343 bound_to 10162
  155.9793  130.4785  150.6707 LP  0  0  0  0  0  0  0  0  0  0  0  0  # atno 17370 bound_to 10713
  157.4327  131.0851  151.1022 LP  0  0  0  0  0  0  0  0  0  0  0  0  # atno 17371 bound_to 10713
  139.9318  134.7949  156.0910 LP  0  0  0  0  0  0  0  0  0  0  0  0  # atno 17394 bound_to 11000
  141.0997  133.6682  156.2726 LP  0  0  0  0  0  0  0  0  0  0  0  0  # atno 17395 bound_to 11000

$$$$
