AV-unprocessed.smi:870|AV-procd|sdf|4010|dock2
  -GOLD-   22720 1503D 1   1.00000     0.00000
 Structure written by MMmdl.
 47 49  0  0  0  0  0  0  0  0  2 V2000
  151.1005  138.4887  154.5969 C   0  0  0  0  0  0  0  0  0  0  0  0
  151.1379  139.9047  154.6333 O   0  0  0  0  0  0  0  0  0  0  0  0
  150.1399  140.4524  155.4794 C   0  0  0  0  0  0  0  0  0  0  0  0
  150.7307  141.2388  156.6036 C   0  0  0  0  0  0  0  0  0  0  0  0
  150.5943  142.5804  156.8039 N   0  3  0  0  0  0  0  0  0  0  0  0
  151.2834  142.9596  157.9565 C   0  0  0  0  0  0  0  0  0  0  0  0
  151.4337  144.2033  158.5622 C   0  0  0  0  0  0  0  0  0  0  0  0
  152.2068  144.2433  159.7413 C   0  0  0  0  0  0  0  0  0  0  0  0
  152.7958  143.0777  160.2734 C   0  0  0  0  0  0  0  0  0  0  0  0
  152.6370  141.8225  159.6499 C   0  0  0  0  0  0  0  0  0  0  0  0
  151.8704  141.7921  158.4854 C   0  0  0  0  0  0  0  0  0  0  0  0
  151.5027  140.7568  157.6198 N   0  0  0  0  0  0  0  0  0  0  0  0
  151.9602  139.3877  157.9032 C   0  0  0  0  0  0  0  0  0  0  0  0
  150.8587  138.3300  157.6889 C   0  0  1  0  0  0  0  0  0  0  0  0
  151.4583  137.1257  157.2535 O   0  0  0  0  0  0  0  0  0  0  0  0
  150.0788  138.0469  158.9819 C   0  0  0  0  0  0  0  0  0  0  0  0
  149.2490  136.9123  158.7724 O   0  0  0  0  0  0  0  0  0  0  0  0
  148.5475  136.4016  159.8453 C   0  0  0  0  0  0  0  0  0  0  0  0
  148.5057  137.0158  161.1236 C   0  0  0  0  0  0  0  0  0  0  0  0
  147.7679  136.4354  162.1729 C   0  0  0  0  0  0  0  0  0  0  0  0
  147.0627  135.2375  161.9613 C   0  0  0  0  0  0  0  0  0  0  0  0
  147.0952  134.6202  160.6980 C   0  0  0  0  0  0  0  0  0  0  0  0
  147.8332  135.1973  159.6430 C   0  0  0  0  0  0  0  0  0  0  0  0
  147.8581  134.5171  158.2869 C   0  0  0  0  0  0  0  0  0  0  0  0
  151.8774  138.1181  153.9280 H   0  0  0  0  0  0  0  0  0  0  0  0
  150.1392  138.1281  154.2286 H   0  0  0  0  0  0  0  0  0  0  0  0
  151.2776  138.0645  155.5860 H   0  0  0  0  0  0  0  0  0  0  0  0
  149.4824  141.1043  154.9029 H   0  0  0  0  0  0  0  0  0  0  0  0
  149.5264  139.6531  155.8981 H   0  0  0  0  0  0  0  0  0  0  0  0
  150.9834  145.0974  158.1565 H   0  0  0  0  0  0  0  0  0  0  0  0
  152.3506  145.1866  160.2479 H   0  0  0  0  0  0  0  0  0  0  0  0
  153.3812  143.1470  161.1789 H   0  0  0  0  0  0  0  0  0  0  0  0
  153.0905  140.9348  160.0658 H   0  0  0  0  0  0  0  0  0  0  0  0
  152.8141  139.1812  157.2567 H   0  0  0  0  0  0  0  0  0  0  0  0
  152.3377  139.3577  158.9262 H   0  0  0  0  0  0  0  0  0  0  0  0
  150.1710  138.6779  156.9174 H   0  0  0  0  0  0  0  0  0  0  0  0
  150.9279  136.7626  156.5603 H   0  0  0  0  0  0  0  0  0  0  0  0
  150.7612  137.9013  159.8213 H   0  0  0  0  0  0  0  0  0  0  0  0
  149.4411  138.9020  159.2124 H   0  0  0  0  0  0  0  0  0  0  0  0
  149.0316  137.9360  161.3268 H   0  0  0  0  0  0  0  0  0  0  0  0
  147.7430  136.9112  163.1421 H   0  0  0  0  0  0  0  0  0  0  0  0
  146.4967  134.7927  162.7667 H   0  0  0  0  0  0  0  0  0  0  0  0
  146.5507  133.7002  160.5427 H   0  0  0  0  0  0  0  0  0  0  0  0
  147.2780  133.5939  158.2926 H   0  0  0  0  0  0  0  0  0  0  0  0
  148.8821  134.2709  158.0045 H   0  0  0  0  0  0  0  0  0  0  0  0
  147.4396  135.1757  157.5255 H   0  0  0  0  0  0  0  0  0  0  0  0
  150.0635  143.1871  156.1923 H   0  0  0  0  0  0  0  0  0  0  0  0
  1  2  1  0  0  0  0
  1 25  1  0  0  0  0
  1 26  1  0  0  0  0
  1 27  1  0  0  0  0
  2  3  1  0  0  0  0
  3  4  1  0  0  0  0
  3 28  1  0  0  0  0
  3 29  1  0  0  0  0
  4 12  1  0  0  0  0
  4  5  2  0  0  0  0
  5  6  1  0  0  0  0
  5 47  1  0  0  0  0
  6 11  2  0  0  0  0
  6  7  1  0  0  0  0
  7  8  2  0  0  0  0
  7 30  1  0  0  0  0
  8  9  1  0  0  0  0
  8 31  1  0  0  0  0
  9 10  2  0  0  0  0
  9 32  1  0  0  0  0
 10 11  1  0  0  0  0
 10 33  1  0  0  0  0
 11 12  1  0  0  0  0
 12 13  1  0  0  0  0
 13 14  1  0  0  0  0
 13 34  1  0  0  0  0
 13 35  1  0  0  0  0
 14 15  1  0  0  0  0
 14 16  1  0  0  0  0
 14 36  1  0  0  0  0
 15 37  1  0  0  0  0
 16 17  1  0  0  0  0
 16 38  1  0  0  0  0
 16 39  1  0  0  0  0
 17 18  1  0  0  0  0
 18 23  1  0  0  0  0
 18 19  2  0  0  0  0
 19 20  1  0  0  0  0
 19 40  1  0  0  0  0
 20 21  2  0  0  0  0
 20 41  1  0  0  0  0
 21 22  1  0  0  0  0
 21 42  1  0  0  0  0
 22 23  2  0  0  0  0
 22 43  1  0  0  0  0
 23 24  1  0  0  0  0
 24 44  1  0  0  0  0
 24 45  1  0  0  0  0
 24 46  1  0  0  0  0
M  CHG  1   5   1
M  END
> <s_m_source_file>
AV-unprocessed.smi

> <i_m_source_file_index>
870

> <i_lp_mmshare_version>
43012

> <i_f3d_flags>
0

> <s_epik_input>
W2NIXTFbY0hdW2NIXVtjSF1jKGMxMiluKGMobjIpW0NIMl1PW0NIM10pW0NIMl1bQ0BIXShbT0hdKVtDSDJdT2MzW2NIXVtjSF1bY0hdW2NIXWMzW0NIM10=

> <s_epik_cmdline>
J2VwaWtfcHl0aG9uJywgJy1waCcsICc3LjAnLCAnLXRuJywgJzgnLCAnLW1hJywgJzIwMCcsICctbWV0YWxfYmluZGluZycsICctaW1hZScsICc8aW5maWxlLm1hZT4nLCAnLW9tYWUnLCAnPG91dGZpbGUubWFlPic=

> <r_lp_tautomer_probability>
1

> <r_epik_Ionization_Penalty>
1.55338

> <r_epik_Ionization_Penalty_Charging>
1.55338

> <r_epik_Ionization_Penalty_Neutral>
2.3993e-06

> <r_epik_State_Penalty>
1.64778

> <r_epik_Charging_Adjusted_Penalty>
3.20115

> <i_epik_Tot_Q>
1

> <i_epik_Tot_abs_Q>
1

> <r_epik_Metal_State_Penalty>
5.70266

> <b_epik_Metal_Only>
0

> <s_lp_Force_Field>
OPLS_2005

> <r_lp_Energy>
19.1039

> <b_lp_Chiralities_Consistent>
1

> <s_lp_Variant>
AV-unprocessed.smi:870-4

> <Gold.Version>
5.8.1

> <Gold.Id.Protein>
6NUR|6NUR_protein|mol2

> <Gold.PLP.Fitness>
53.1234

> <Gold.PLP.PLP>
-46.3556

> <Gold.PLP.part.hbond>
-2.0000

> <Gold.PLP.part.metal>
0.0000

> <Gold.PLP.part.buried>
-2.4613

> <Gold.PLP.part.nonpolar>
-42.2163

> <Gold.PLP.part.repulsive>
0.1219

> <Gold.PLP.ligand.clash>
0.0000

> <Gold.PLP.ligand.torsion>
1.1477

> <Gold.PLP.Chemscore.Hbond>
3.0000

> <Gold.PLP.Chemscore.CHOScore>
0.0000

> <Gold.PLP.Chemscore.Metal>
0.0000

> <Gold.Chemscore.Hbonds>
donor molecule, donor type, donor heavy atom, donor atom, acceptor molecule, acceptor atom, score
      L1  H     5    47       P1  8028  2.00
      P1  H  7989  7998       L1     2  1.00

> <Gold.PLP.Chemscore.Internal.Correction>
0.0633

> <Gold.Rescore>
     Score         DG    S(hbond)    S(metal)    S(lipo)     H(rot)  DE(clash)    DE(int)     intcor
     18.50     -21.00       1.92        0.00     131.41       2.45       1.55       0.96       ----

> <Gold.Chemscore.Fitness>
18.4957

> <Gold.Chemscore.DG>
-21.0006

> <Gold.Chemscore.ZeroCoef>
-5.4800

> <Gold.Chemscore.Hbond>
1.9209

> <Gold.Chemscore.Metal>
0.0000

> <Gold.Chemscore.Lipo>
131.4109

> <Gold.Chemscore.Internal_Hbond>
0.0000

> <Gold.Chemscore.DEClash>
1.5475

> <Gold.Chemscore.DEInternal>
0.9574

> <Gold.Chemscore.Rot>
2.4494

> <Gold.Chemscore.Internal.Correction>
   9.000000E+99

> <Gold.Chemscore.Hbonds>
donor molecule, donor type, donor heavy atom, donor atom, acceptor molecule, acceptor atom, score
      L1  H     5    47       P1  8028  0.95
      P1  H  7989  7998       L1     2  0.88

> <Gold.Chemscore.Hbond.Weighted>
-6.4159

> <Gold.Chemscore.Metal.Weighted>
-0.0000

> <Gold.Chemscore.Lipo.Weighted>
-15.3751

> <Gold.Chemscore.Internal_Hbond.Weighted>
0.0000

> <Gold.Chemscore.DEClash.Weighted>
1.5475

> <Gold.Chemscore.DEInternal.Weighted>
0.9574

> <Gold.Chemscore.Rot.Weighted>
6.2704

> <Gold.Chemscore.Internal.Correction.Weighted>
   9.000000E+99

> <Gold.Protein.RotatedTorsions>
[ 6907 6896 6895 6894 ] final  -55.10 input  -60.11 | X-H torsion
[ 7974 7965 7964 7962 ] final -126.26 input  175.53 | X-H torsion
[ 8008 7997 7996 7995 ] final  166.18 input   59.86 | X-H torsion
[ 10167 10162 10161 10158 ] final   62.39 input  -65.29 | X-H torsion
[ 10718 10713 10712 10709 ] final  174.32 input   66.30 | X-H torsion
[ 10763 10752 10751 10750 ] final  -42.96 input  -60.55 | X-H torsion
[ 11005 11000 10999 10996 ] final  120.39 input  -57.11 | X-H torsion

> <Gold.Protein.ActiveResidues>
 VAL166  LYS551  ARG553  GLY616  TRP617  ASP618  TYR619  PRO620  LYS621  CYS622 
 ASP623  PHE694  ASN695  SER759  ASP760  ASP761  ALA762  ILE779  LEU786  VAL792 
 PHE793  MET794  SER795  GLU796  ALA797  LYS798  CYS799  TRP800  GLU811  SER814 

> <Gold.Protein.RotatedAtoms>
  150.8280  134.7521  159.6829 H   0  0  0  0  0  0  0  0  0  0  0  0  # atno 6907 bound_to 6896
  152.4389  134.5628  159.9909 H   0  0  0  0  0  0  0  0  0  0  0  0  # atno 6908 bound_to 6896
  151.5796  133.3342  159.3041 H   0  0  0  0  0  0  0  0  0  0  0  0  # atno 6909 bound_to 6896
  144.9891  140.7715  143.4565 H   0  0  0  0  0  0  0  0  0  0  0  0  # atno 7974 bound_to 7965
  156.1739  140.1650  156.8397 H   0  0  0  0  0  0  0  0  0  0  0  0  # atno 8008 bound_to 7997
  154.5286  140.0762  156.8338 H   0  0  0  0  0  0  0  0  0  0  0  0  # atno 8009 bound_to 7997
  155.3454  140.3387  155.4241 H   0  0  0  0  0  0  0  0  0  0  0  0  # atno 8010 bound_to 7997
  140.1444  144.4523  150.6793 H   0  0  0  0  0  0  0  0  0  0  0  0  # atno 10167 bound_to 10162
  156.9513  131.0032  151.2948 H   0  0  0  0  0  0  0  0  0  0  0  0  # atno 10718 bound_to 10713
  153.9876  135.6709  153.4752 H   0  0  0  0  0  0  0  0  0  0  0  0  # atno 10763 bound_to 10752
  153.0719  135.4969  154.8320 H   0  0  0  0  0  0  0  0  0  0  0  0  # atno 10764 bound_to 10752
  154.7128  135.3101  154.9133 H   0  0  0  0  0  0  0  0  0  0  0  0  # atno 10765 bound_to 10752
  139.9183  134.9634  156.7799 H   0  0  0  0  0  0  0  0  0  0  0  0  # atno 11005 bound_to 11000
  145.2311  139.2114  143.5042 LP  0  0  0  0  0  0  0  0  0  0  0  0  # atno 17320 bound_to 7965
  146.3427  140.2188  142.8591 LP  0  0  0  0  0  0  0  0  0  0  0  0  # atno 17321 bound_to 7965
  140.6741  143.2297  151.5552 LP  0  0  0  0  0  0  0  0  0  0  0  0  # atno 17342 bound_to 10162
  139.5456  144.2530  152.1436 LP  0  0  0  0  0  0  0  0  0  0  0  0  # atno 17343 bound_to 10162
  157.5720  130.8317  149.8404 LP  0  0  0  0  0  0  0  0  0  0  0  0  # atno 17370 bound_to 10713
  156.0362  130.3751  150.1555 LP  0  0  0  0  0  0  0  0  0  0  0  0  # atno 17371 bound_to 10713
  140.6553  133.9695  155.7776 LP  0  0  0  0  0  0  0  0  0  0  0  0  # atno 17394 bound_to 11000
  141.0681  134.0247  157.3566 LP  0  0  0  0  0  0  0  0  0  0  0  0  # atno 17395 bound_to 11000

$$$$
