AV-unprocessed.smi:1868|AV-procd|sdf|7588|dock2
  -GOLD-   22720 9303D 1   1.00000     0.00000
 Structure written by MMmdl.
 48 50  0  0  0  0  0  0  0  0  3 V2000
  151.9801  137.9936  158.5387 C   0  0  0  0  0  0  0  0  0  0  0  0
  151.9174  139.4835  158.5863 C   0  0  0  0  0  0  0  0  0  0  0  0
  152.4295  140.2748  159.5706 N   0  3  0  0  0  0  0  0  0  0  0  0
  152.1837  141.6162  159.2745 C   0  0  0  0  0  0  0  0  0  0  0  0
  152.5111  142.7776  159.9673 C   0  0  0  0  0  0  0  0  0  0  0  0
  152.1108  143.9971  159.3828 C   0  0  0  0  0  0  0  0  0  0  0  0
  151.4136  144.0303  158.1574 C   0  0  0  0  0  0  0  0  0  0  0  0
  151.0866  142.8459  157.4641 C   0  0  0  0  0  0  0  0  0  0  0  0
  151.4863  141.6448  158.0493 C   0  0  0  0  0  0  0  0  0  0  0  0
  151.3423  140.3075  157.6632 N   0  0  0  0  0  0  0  0  0  0  0  0
  150.6482  139.9929  156.4044 C   0  0  0  0  0  0  0  0  0  0  0  0
  151.4030  138.9661  155.5358 C   0  0  2  0  0  0  0  0  0  0  0  0
  152.6398  139.5245  155.1336 O   0  0  0  0  0  0  0  0  0  0  0  0
  150.5863  138.5851  154.2832 C   0  0  0  0  0  0  0  0  0  0  0  0
  149.7188  137.3952  154.4858 N   0  3  2  0  0  0  0  0  0  0  0  0
  148.5678  137.6900  155.3783 C   0  0  0  0  0  0  0  0  0  0  0  0
  147.6074  136.4920  155.4652 C   0  0  0  0  0  0  0  0  0  0  0  0
  148.3373  135.2243  155.9389 C   0  0  1  0  0  0  0  0  0  0  0  0
  147.3949  134.0141  156.0007 C   0  0  0  0  0  0  0  0  0  0  0  0
  149.5421  134.9627  155.0200 C   0  0  0  0  0  0  0  0  0  0  0  0
  150.4640  136.1914  154.9426 C   0  0  0  0  0  0  0  0  0  0  0  0
  152.5428  137.6062  159.3884 H   0  0  0  0  0  0  0  0  0  0  0  0
  152.4695  137.6657  157.6215 H   0  0  0  0  0  0  0  0  0  0  0  0
  150.9749  137.5728  158.5677 H   0  0  0  0  0  0  0  0  0  0  0  0
  153.0463  142.7551  160.9054 H   0  0  0  0  0  0  0  0  0  0  0  0
  152.3440  144.9255  159.8839 H   0  0  0  0  0  0  0  0  0  0  0  0
  151.1255  144.9844  157.7403 H   0  0  0  0  0  0  0  0  0  0  0  0
  150.5537  142.8826  156.5258 H   0  0  0  0  0  0  0  0  0  0  0  0
  149.6460  139.6371  156.6462 H   0  0  0  0  0  0  0  0  0  0  0  0
  150.5156  140.9269  155.8571 H   0  0  0  0  0  0  0  0  0  0  0  0
  151.6105  138.0859  156.1427 H   0  0  0  0  0  0  0  0  0  0  0  0
  153.0185  138.9817  154.4593 H   0  0  0  0  0  0  0  0  0  0  0  0
  149.9662  139.4241  153.9631 H   0  0  0  0  0  0  0  0  0  0  0  0
  151.2835  138.3967  153.4647 H   0  0  0  0  0  0  0  0  0  0  0  0
  148.9337  137.9532  156.3720 H   0  0  0  0  0  0  0  0  0  0  0  0
  148.0211  138.5557  155.0024 H   0  0  0  0  0  0  0  0  0  0  0  0
  146.7880  136.7278  156.1454 H   0  0  0  0  0  0  0  0  0  0  0  0
  147.1554  136.3164  154.4878 H   0  0  0  0  0  0  0  0  0  0  0  0
  148.7118  135.4037  156.9479 H   0  0  0  0  0  0  0  0  0  0  0  0
  146.9832  133.7803  155.0184 H   0  0  0  0  0  0  0  0  0  0  0  0
  146.5593  134.2008  156.6759 H   0  0  0  0  0  0  0  0  0  0  0  0
  147.9174  133.1280  156.3622 H   0  0  0  0  0  0  0  0  0  0  0  0
  150.1079  134.1037  155.3827 H   0  0  0  0  0  0  0  0  0  0  0  0
  149.1967  134.7029  154.0182 H   0  0  0  0  0  0  0  0  0  0  0  0
  151.2854  135.9685  154.2633 H   0  0  0  0  0  0  0  0  0  0  0  0
  150.9088  136.3860  155.9198 H   0  0  0  0  0  0  0  0  0  0  0  0
  149.3211  137.1740  153.5844 H   0  0  0  0  0  0  0  0  0  0  0  0
  152.9132  139.9203  160.3856 H   0  0  0  0  0  0  0  0  0  0  0  0
  1  2  1  0  0  0  0
  1 22  1  0  0  0  0
  1 23  1  0  0  0  0
  1 24  1  0  0  0  0
  2 10  1  0  0  0  0
  2  3  2  0  0  0  0
  3  4  1  0  0  0  0
  3 48  1  0  0  0  0
  4  9  2  0  0  0  0
  4  5  1  0  0  0  0
  5  6  2  0  0  0  0
  5 25  1  0  0  0  0
  6  7  1  0  0  0  0
  6 26  1  0  0  0  0
  7  8  2  0  0  0  0
  7 27  1  0  0  0  0
  8  9  1  0  0  0  0
  8 28  1  0  0  0  0
  9 10  1  0  0  0  0
 10 11  1  0  0  0  0
 11 12  1  0  0  0  0
 11 29  1  0  0  0  0
 11 30  1  0  0  0  0
 12 13  1  0  0  0  0
 12 14  1  0  0  0  0
 12 31  1  0  0  0  0
 13 32  1  0  0  0  0
 14 15  1  0  0  0  0
 14 33  1  0  0  0  0
 14 34  1  0  0  0  0
 15 21  1  0  0  0  0
 15 16  1  0  0  0  0
 15 47  1  0  0  0  0
 16 17  1  0  0  0  0
 16 35  1  0  0  0  0
 16 36  1  0  0  0  0
 17 18  1  0  0  0  0
 17 37  1  0  0  0  0
 17 38  1  0  0  0  0
 18 19  1  0  0  0  0
 18 20  1  0  0  0  0
 18 39  1  0  0  0  0
 19 40  1  0  0  0  0
 19 41  1  0  0  0  0
 19 42  1  0  0  0  0
 20 21  1  0  0  0  0
 20 43  1  0  0  0  0
 20 44  1  0  0  0  0
 21 45  1  0  0  0  0
 21 46  1  0  0  0  0
M  CHG  1   3   1
M  CHG  1  15   1
M  END
> <s_m_source_file>
AV-unprocessed.smi

> <i_m_source_file_index>
1868

> <i_lp_mmshare_version>
43012

> <i_f3d_flags>
0

> <s_epik_input>
W2NIXTFbY0hdW2NIXVtjSF1jKGMxMiluKGMobjIpW0NIM10pW0NIMl1bQ0BIXShbT0hdKVtDSDJdTjNbQ0gyXVtDSDJdW0NIXShbQ0gzXSlbQ0gyXVtDSDJdMw==

> <s_epik_cmdline>
J2VwaWtfcHl0aG9uJywgJy1waCcsICc3LjAnLCAnLXRuJywgJzgnLCAnLW1hJywgJzIwMCcsICctbWV0YWxfYmluZGluZycsICctaW1hZScsICc8aW5maWxlLm1hZT4nLCAnLW9tYWUnLCAnPG91dGZpbGUubWFlPic=

> <r_epik_Ionization_Penalty>
1.10901

> <r_epik_Ionization_Penalty_Charging>
1.10901

> <r_epik_Ionization_Penalty_Neutral>
6.90208e-07

> <r_epik_State_Penalty>
1.18788

> <r_epik_Charging_Adjusted_Penalty>
2.29689

> <i_epik_Tot_Q>
2

> <i_epik_Tot_abs_Q>
2

> <r_epik_Metal_State_Penalty>
5.19353

> <b_epik_Metal_Only>
0

> <s_lp_Force_Field>
OPLS_2005

> <r_lp_Energy>
30.2902

> <b_lp_Chiralities_Consistent>
1

> <s_lp_Variant>
AV-unprocessed.smi:1868-5

> <Gold.Version>
5.8.1

> <Gold.Id.Protein>
6NUR|6NUR_protein|mol2

> <Gold.PLP.Fitness>
48.3705

> <Gold.PLP.PLP>
-40.1754

> <Gold.PLP.part.hbond>
-3.0000

> <Gold.PLP.part.metal>
0.0000

> <Gold.PLP.part.buried>
-6.0499

> <Gold.PLP.part.nonpolar>
-31.6169

> <Gold.PLP.part.repulsive>
0.1447

> <Gold.PLP.ligand.clash>
0.0000

> <Gold.PLP.ligand.torsion>
0.6150

> <Gold.PLP.Chemscore.Hbond>
3.1269

> <Gold.PLP.Chemscore.CHOScore>
0.0000

> <Gold.PLP.Chemscore.Metal>
0.0000

> <Gold.Chemscore.Hbonds>
donor molecule, donor type, donor heavy atom, donor atom, acceptor molecule, acceptor atom, score
      L1  H    15    47       P1  7948  2.00
      P1  H  7989  7998       L1    13  0.06
      P1  H  7997  8010       L1    13  0.52

> <Gold.PLP.Chemscore.Internal.Correction>
0.0443

> <Gold.Rescore>
     Score         DG    S(hbond)    S(metal)    S(lipo)     H(rot)  DE(clash)    DE(int)     intcor
     18.44     -19.12       1.79        0.00     108.87       1.99       0.04       0.64       ----

> <Gold.Chemscore.Fitness>
18.4372

> <Gold.Chemscore.DG>
-19.1150

> <Gold.Chemscore.ZeroCoef>
-5.4800

> <Gold.Chemscore.Hbond>
1.7911

> <Gold.Chemscore.Metal>
0.0000

> <Gold.Chemscore.Lipo>
108.8688

> <Gold.Chemscore.Internal_Hbond>
0.0000

> <Gold.Chemscore.DEClash>
0.0360

> <Gold.Chemscore.DEInternal>
0.6418

> <Gold.Chemscore.Rot>
1.9863

> <Gold.Chemscore.Internal.Correction>
   9.000000E+99

> <Gold.Chemscore.Hbonds>
donor molecule, donor type, donor heavy atom, donor atom, acceptor molecule, acceptor atom, score
      L1  H    15    47       P1  7948  0.95
      P1  H  7997  8010       L1    13  0.04

> <Gold.Chemscore.Hbond.Weighted>
-5.9824

> <Gold.Chemscore.Metal.Weighted>
-0.0000

> <Gold.Chemscore.Lipo.Weighted>
-12.7376

> <Gold.Chemscore.Internal_Hbond.Weighted>
0.0000

> <Gold.Chemscore.DEClash.Weighted>
0.0360

> <Gold.Chemscore.DEInternal.Weighted>
0.6418

> <Gold.Chemscore.Rot.Weighted>
5.0850

> <Gold.Chemscore.Internal.Correction.Weighted>
   9.000000E+99

> <Gold.Protein.RotatedTorsions>
[ 6907 6896 6895 6894 ] final   56.87 input  -60.11 | X-H torsion
[ 7974 7965 7964 7962 ] final -104.05 input  175.53 | X-H torsion
[ 8008 7997 7996 7995 ] final  113.05 input   59.86 | X-H torsion
[ 10167 10162 10161 10158 ] final  -57.26 input  -65.29 | X-H torsion
[ 10718 10713 10712 10709 ] final  -31.63 input   66.30 | X-H torsion
[ 10763 10752 10751 10750 ] final -148.07 input  -60.55 | X-H torsion
[ 11005 11000 10999 10996 ] final   87.23 input  -57.11 | X-H torsion

> <Gold.Protein.ActiveResidues>
 VAL166  LYS551  ARG553  GLY616  TRP617  ASP618  TYR619  PRO620  LYS621  CYS622 
 ASP623  PHE694  ASN695  SER759  ASP760  ASP761  ALA762  ILE779  LEU786  VAL792 
 PHE793  MET794  SER795  GLU796  ALA797  LYS798  CYS799  TRP800  GLU811  SER814 

> <Gold.Protein.RotatedAtoms>
  152.3678  134.6779  160.0185 H   0  0  0  0  0  0  0  0  0  0  0  0  # atno 6907 bound_to 6896
  151.7082  133.3306  159.3292 H   0  0  0  0  0  0  0  0  0  0  0  0  # atno 6908 bound_to 6896
  150.7651  134.6491  159.6323 H   0  0  0  0  0  0  0  0  0  0  0  0  # atno 6909 bound_to 6896
  145.2480  140.9228  143.3111 H   0  0  0  0  0  0  0  0  0  0  0  0  # atno 7974 bound_to 7965
  156.2233  140.2987  156.0004 H   0  0  0  0  0  0  0  0  0  0  0  0  # atno 8008 bound_to 7997
  155.2425  140.0423  157.2994 H   0  0  0  0  0  0  0  0  0  0  0  0  # atno 8009 bound_to 7997
  154.5874  140.2392  155.7976 H   0  0  0  0  0  0  0  0  0  0  0  0  # atno 8010 bound_to 7997
  140.6268  143.2442  151.5342 H   0  0  0  0  0  0  0  0  0  0  0  0  # atno 10167 bound_to 10162
  156.3849  130.4362  149.7440 H   0  0  0  0  0  0  0  0  0  0  0  0  # atno 10718 bound_to 10713
  154.8252  135.3344  154.6916 H   0  0  0  0  0  0  0  0  0  0  0  0  # atno 10763 bound_to 10752
  153.7543  135.6937  153.4943 H   0  0  0  0  0  0  0  0  0  0  0  0  # atno 10764 bound_to 10752
  153.2154  135.4467  155.0378 H   0  0  0  0  0  0  0  0  0  0  0  0  # atno 10765 bound_to 10752
  139.8925  134.8408  156.2831 H   0  0  0  0  0  0  0  0  0  0  0  0  # atno 11005 bound_to 11000
  144.9528  139.4064  143.6394 LP  0  0  0  0  0  0  0  0  0  0  0  0  # atno 17320 bound_to 7965
  146.3310  139.8544  142.8867 LP  0  0  0  0  0  0  0  0  0  0  0  0  # atno 17321 bound_to 7965
  139.5487  144.2451  152.1491 LP  0  0  0  0  0  0  0  0  0  0  0  0  # atno 17342 bound_to 10162
  140.1685  144.4958  150.6593 LP  0  0  0  0  0  0  0  0  0  0  0  0  # atno 17343 bound_to 10162
  156.4516  130.7909  151.2930 LP  0  0  0  0  0  0  0  0  0  0  0  0  # atno 17370 bound_to 10713
  157.7495  131.0093  150.3264 LP  0  0  0  0  0  0  0  0  0  0  0  0  # atno 17371 bound_to 10713
  141.0026  133.7142  156.0984 LP  0  0  0  0  0  0  0  0  0  0  0  0  # atno 17394 bound_to 11000
  140.7477  134.4079  157.5546 LP  0  0  0  0  0  0  0  0  0  0  0  0  # atno 17395 bound_to 11000

$$$$
