AV-unprocessed.smi:726|AV-procd|sdf|3514|dock6
  -GOLD-   22720 0513D 1   1.00000     0.00000
 Structure written by MMmdl.
 24 24  0  0  0  0  0  0  0  0  2 V2000
  151.7089  139.5985  157.9040 C   0  0  0  0  0  0  0  0  0  0  0  0
  150.9489  139.3428  156.6089 C   0  0  0  0  0  0  0  0  0  0  0  0
  150.5801  140.3994  155.8478 C   0  0  0  0  0  0  0  0  0  0  0  0
  149.9193  140.1999  154.5480 C   0  0  0  0  0  0  0  0  0  0  0  0
  149.5074  141.1406  153.8717 O   0  0  0  0  0  0  0  0  0  0  0  0
  149.8023  138.8061  154.1015 C   0  0  0  0  0  0  0  0  0  0  0  0
  150.1942  137.8182  154.9290 C   0  0  0  0  0  0  0  0  0  0  0  0
  150.1573  136.5371  154.5354 O   0  0  0  0  0  0  0  0  0  0  0  0
  150.6964  138.0011  156.2370 N   0  0  0  0  0  0  0  0  0  0  0  0
  150.8024  136.9014  157.2252 C   0  0  2  0  0  0  0  0  0  0  0  0
  149.7650  137.0219  158.3611 C   0  0  0  0  0  0  0  0  0  0  0  0
  152.2448  136.6363  157.6996 C   0  0  0  0  0  0  0  0  0  0  0  0
  153.1216  136.4125  156.8354 O   0  0  0  0  0  0  0  0  0  0  0  0
  152.4435  136.6672  158.9341 O   0  5  0  0  0  0  0  0  0  0  0  0
  152.1747  140.5844  157.8922 H   0  0  0  0  0  0  0  0  0  0  0  0
  152.5108  138.8749  158.0527 H   0  0  0  0  0  0  0  0  0  0  0  0
  151.0312  139.5611  158.7572 H   0  0  0  0  0  0  0  0  0  0  0  0
  150.7918  141.4121  156.1590 H   0  0  0  0  0  0  0  0  0  0  0  0
  149.4281  138.6037  153.1085 H   0  0  0  0  0  0  0  0  0  0  0  0
  150.5707  135.9579  156.7380 H   0  0  0  0  0  0  0  0  0  0  0  0
  149.8038  136.1545  159.0207 H   0  0  0  0  0  0  0  0  0  0  0  0
  148.7543  137.0757  157.9565 H   0  0  0  0  0  0  0  0  0  0  0  0
  149.9199  137.9072  158.9768 H   0  0  0  0  0  0  0  0  0  0  0  0
  149.8071  136.5180  153.6584 H   0  0  0  0  0  0  0  0  0  0  0  0
  1  2  1  0  0  0  0
  1 15  1  0  0  0  0
  1 16  1  0  0  0  0
  1 17  1  0  0  0  0
  2  9  1  0  0  0  0
  2  3  2  0  0  0  0
  3  4  1  0  0  0  0
  3 18  1  0  0  0  0
  4  5  2  0  0  0  0
  4  6  1  0  0  0  0
  6  7  2  0  0  0  0
  6 19  1  0  0  0  0
  7  8  1  0  0  0  0
  7  9  1  0  0  0  0
  8 24  1  0  0  0  0
  9 10  1  0  0  0  0
 10 11  1  0  0  0  0
 10 12  1  0  0  0  0
 10 20  1  0  0  0  0
 11 21  1  0  0  0  0
 11 22  1  0  0  0  0
 11 23  1  0  0  0  0
 12 13  2  0  0  0  0
 12 14  1  0  0  0  0
M  CHG  1  14  -1
M  END
> <s_m_source_file>
AV-unprocessed.smi

> <i_m_source_file_index>
726

> <i_lp_mmshare_version>
43012

> <i_f3d_flags>
0

> <s_epik_input>
W0NIM11jMVtjSF1jKFtPSF0pW2NIXWMoPU8pbjFbQ0BIXShbQ0gzXSlDKD1PKVtPSF0=

> <s_epik_cmdline>
J2VwaWtfcHl0aG9uJywgJy1waCcsICc3LjAnLCAnLXRuJywgJzgnLCAnLW1hJywgJzIwMCcsICctbWV0YWxfYmluZGluZycsICctaW1hZScsICc8aW5maWxlLm1hZT4nLCAnLW9tYWUnLCAnPG91dGZpbGUubWFlPic=

> <r_epik_Ionization_Penalty>
0.000857085

> <r_epik_Ionization_Penalty_Charging>
0.000857085

> <r_epik_Ionization_Penalty_Neutral>
0

> <r_epik_State_Penalty>
1.45659

> <r_epik_Charging_Adjusted_Penalty>
1.45745

> <i_epik_Tot_Q>
-1

> <i_epik_Tot_abs_Q>
1

> <r_epik_Metal_State_Penalty>
1.45659

> <b_epik_Metal_Only>
0

> <s_lp_Force_Field>
OPLS_2005

> <r_lp_Energy>
4.32013

> <b_lp_Chiralities_Consistent>
1

> <s_lp_Variant>
AV-unprocessed.smi:726-5

> <Gold.Version>
5.8.1

> <Gold.Id.Protein>
6NUR|6NUR_protein|mol2

> <Gold.PLP.Fitness>
35.2488

> <Gold.PLP.PLP>
-18.2415

> <Gold.PLP.part.hbond>
-5.1297

> <Gold.PLP.part.metal>
0.0000

> <Gold.PLP.part.buried>
-1.0501

> <Gold.PLP.part.nonpolar>
-13.4698

> <Gold.PLP.part.repulsive>
1.5328

> <Gold.PLP.ligand.clash>
0.0000

> <Gold.PLP.ligand.torsion>
0.1684

> <Gold.PLP.Chemscore.Hbond>
5.6720

> <Gold.PLP.Chemscore.CHOScore>
0.0000

> <Gold.PLP.Chemscore.Metal>
0.0000

> <Gold.Chemscore.Hbonds>
donor molecule, donor type, donor heavy atom, donor atom, acceptor molecule, acceptor atom, score
      L1  H     8    24       P1  7948  1.00
      P1  H  6896  6909       L1    14  1.63
      P1  H  8011  8017       L1     5  0.88
      P1  H 10752 10765       L1    13  2.00

> <Gold.PLP.Chemscore.Internal.Correction>
0.3280

> <Gold.Rescore>
     Score         DG    S(hbond)    S(metal)    S(lipo)     H(rot)  DE(clash)    DE(int)     intcor
     14.30     -14.85       3.43        0.00      28.36       2.11       0.34       0.20       ----

> <Gold.Chemscore.Fitness>
14.3008

> <Gold.Chemscore.DG>
-14.8454

> <Gold.Chemscore.ZeroCoef>
-5.4800

> <Gold.Chemscore.Hbond>
3.4296

> <Gold.Chemscore.Metal>
0.0000

> <Gold.Chemscore.Lipo>
28.3608

> <Gold.Chemscore.Internal_Hbond>
0.0000

> <Gold.Chemscore.DEClash>
0.3441

> <Gold.Chemscore.DEInternal>
0.2006

> <Gold.Chemscore.Rot>
2.1124

> <Gold.Chemscore.Internal.Correction>
   9.000000E+99

> <Gold.Chemscore.Hbonds>
donor molecule, donor type, donor heavy atom, donor atom, acceptor molecule, acceptor atom, score
      L1  H     8    24       P1  7948  0.34
      P1  H  6896  6909       L1    14  0.75
      P1  H  8011  8017       L1     5  0.82
      P1  H 10752 10765       L1    13  0.97

> <Gold.Chemscore.Hbond.Weighted>
-11.4550

> <Gold.Chemscore.Metal.Weighted>
-0.0000

> <Gold.Chemscore.Lipo.Weighted>
-3.3182

> <Gold.Chemscore.Internal_Hbond.Weighted>
0.0000

> <Gold.Chemscore.DEClash.Weighted>
0.3441

> <Gold.Chemscore.DEInternal.Weighted>
0.2006

> <Gold.Chemscore.Rot.Weighted>
5.4078

> <Gold.Chemscore.Internal.Correction.Weighted>
   9.000000E+99

> <Gold.Protein.RotatedTorsions>
[ 6907 6896 6895 6894 ] final  128.29 input  -60.11 | X-H torsion
[ 7974 7965 7964 7962 ] final  -69.87 input  175.53 | X-H torsion
[ 8008 7997 7996 7995 ] final -148.09 input   59.86 | X-H torsion
[ 10167 10162 10161 10158 ] final  -13.25 input  -65.29 | X-H torsion
[ 10718 10713 10712 10709 ] final  141.91 input   66.30 | X-H torsion
[ 10763 10752 10751 10750 ] final -110.17 input  -60.55 | X-H torsion
[ 11005 11000 10999 10996 ] final  -47.63 input  -57.11 | X-H torsion

> <Gold.Protein.ActiveResidues>
 VAL166  LYS551  ARG553  GLY616  TRP617  ASP618  TYR619  PRO620  LYS621  CYS622 
 ASP623  PHE694  ASN695  SER759  ASP760  ASP761  ALA762  ILE779  LEU786  VAL792 
 PHE793  MET794  SER795  GLU796  ALA797  LYS798  CYS799  TRP800  GLU811  SER814 

> <Gold.Protein.RotatedAtoms>
  152.3733  133.6448  159.6103 H   0  0  0  0  0  0  0  0  0  0  0  0  # atno 6907 bound_to 6896
  150.7685  133.9234  159.3414 H   0  0  0  0  0  0  0  0  0  0  0  0  # atno 6908 bound_to 6896
  151.7053  135.0924  160.0309 H   0  0  0  0  0  0  0  0  0  0  0  0  # atno 6909 bound_to 6896
  145.6982  140.9127  143.0745 H   0  0  0  0  0  0  0  0  0  0  0  0  # atno 7974 bound_to 7965
  155.5861  140.0648  157.2771 H   0  0  0  0  0  0  0  0  0  0  0  0  # atno 8008 bound_to 7997
  154.4318  140.1843  156.1072 H   0  0  0  0  0  0  0  0  0  0  0  0  # atno 8009 bound_to 7997
  156.0268  140.3311  155.7101 H   0  0  0  0  0  0  0  0  0  0  0  0  # atno 8010 bound_to 7997
  140.7178  143.5446  150.9370 H   0  0  0  0  0  0  0  0  0  0  0  0  # atno 10167 bound_to 10162
  157.3866  131.0999  151.0687 H   0  0  0  0  0  0  0  0  0  0  0  0  # atno 10718 bound_to 10713
  154.8233  135.4574  154.0844 H   0  0  0  0  0  0  0  0  0  0  0  0  # atno 10763 bound_to 10752
  153.2179  135.6890  153.8041 H   0  0  0  0  0  0  0  0  0  0  0  0  # atno 10764 bound_to 10752
  153.7469  135.3304  155.3291 H   0  0  0  0  0  0  0  0  0  0  0  0  # atno 10765 bound_to 10752
  141.0652  133.6696  156.3326 H   0  0  0  0  0  0  0  0  0  0  0  0  # atno 11005 bound_to 11000
  144.6976  139.8913  143.7453 LP  0  0  0  0  0  0  0  0  0  0  0  0  # atno 17320 bound_to 7965
  146.0821  139.3809  143.0458 LP  0  0  0  0  0  0  0  0  0  0  0  0  # atno 17321 bound_to 7965
  139.9169  143.6652  152.3104 LP  0  0  0  0  0  0  0  0  0  0  0  0  # atno 17342 bound_to 10162
  139.7055  144.7628  151.1200 LP  0  0  0  0  0  0  0  0  0  0  0  0  # atno 17343 bound_to 10162
  157.1736  130.6278  149.5648 LP  0  0  0  0  0  0  0  0  0  0  0  0  # atno 17370 bound_to 10713
  155.9788  130.4777  150.6678 LP  0  0  0  0  0  0  0  0  0  0  0  0  # atno 17371 bound_to 10713
  140.5787  134.5768  157.5474 LP  0  0  0  0  0  0  0  0  0  0  0  0  # atno 17394 bound_to 11000
  139.9470  134.7684  156.0538 LP  0  0  0  0  0  0  0  0  0  0  0  0  # atno 17395 bound_to 11000

$$$$
