AV-unprocessed.smi:1012|AV-procd|sdf|4423|dock3
  -GOLD-   22720 2373D 1   1.00000     0.00000
 Structure written by MMmdl.
 43 45  0  0  0  0  0  0  0  0  1 V2000
  146.9482  137.6922  163.3693 C   0  0  0  0  0  0  0  0  0  0  0  0
  147.4194  137.3395  162.0773 O   0  0  0  0  0  0  0  0  0  0  0  0
  147.4256  136.0054  161.7233 C   0  0  0  0  0  0  0  0  0  0  0  0
  146.9114  134.9726  162.5485 C   0  0  0  0  0  0  0  0  0  0  0  0
  146.9454  133.6311  162.1228 C   0  0  0  0  0  0  0  0  0  0  0  0
  147.4922  133.3024  160.8700 C   0  0  0  0  0  0  0  0  0  0  0  0
  148.0052  134.3174  160.0424 C   0  0  0  0  0  0  0  0  0  0  0  0
  147.9763  135.6635  160.4645 C   0  0  0  0  0  0  0  0  0  0  0  0
  148.5250  136.7460  159.5521 C   0  0  0  0  0  0  0  0  0  0  0  0
  149.9396  136.6892  159.4677 O   0  0  0  0  0  0  0  0  0  0  0  0
  150.4857  137.7192  158.6609 C   0  0  0  0  0  0  0  0  0  0  0  0
  152.0181  137.6113  158.6856 C   0  0  1  0  0  0  0  0  0  0  0  0
  152.4014  136.5069  157.8893 O   0  0  0  0  0  0  0  0  0  0  0  0
  152.6936  138.8843  158.1403 C   0  0  0  0  0  0  0  0  0  0  0  0
  152.9478  139.8675  159.1786 N   0  0  0  0  0  0  0  0  0  0  0  0
  153.5874  139.6630  160.3459 C   0  0  0  0  0  0  0  0  0  0  0  0
  153.7138  140.7050  161.1626 N   0  0  0  0  0  0  0  0  0  0  0  0
  153.0839  141.7039  160.4403 C   0  0  0  0  0  0  0  0  0  0  0  0
  152.8725  143.0659  160.7516 C   0  0  0  0  0  0  0  0  0  0  0  0
  152.1956  143.9093  159.8464 C   0  0  0  0  0  0  0  0  0  0  0  0
  152.0024  145.2124  160.1599 F   0  0  0  0  0  0  0  0  0  0  0  0
  151.7203  143.4041  158.6179 C   0  0  0  0  0  0  0  0  0  0  0  0
  151.0731  144.2212  157.7537 F   0  0  0  0  0  0  0  0  0  0  0  0
  151.9180  142.0499  158.2865 C   0  0  0  0  0  0  0  0  0  0  0  0
  152.5934  141.2122  159.1930 C   0  0  0  0  0  0  0  0  0  0  0  0
  147.0311  138.7711  163.4989 H   0  0  0  0  0  0  0  0  0  0  0  0
  147.5424  137.2201  164.1529 H   0  0  0  0  0  0  0  0  0  0  0  0
  145.8989  137.4242  163.4985 H   0  0  0  0  0  0  0  0  0  0  0  0
  146.4814  135.1832  163.5157 H   0  0  0  0  0  0  0  0  0  0  0  0
  146.5498  132.8535  162.7593 H   0  0  0  0  0  0  0  0  0  0  0  0
  147.5169  132.2733  160.5432 H   0  0  0  0  0  0  0  0  0  0  0  0
  148.4228  134.0566  159.0811 H   0  0  0  0  0  0  0  0  0  0  0  0
  148.0955  136.6485  158.5539 H   0  0  0  0  0  0  0  0  0  0  0  0
  148.2091  137.7145  159.9430 H   0  0  0  0  0  0  0  0  0  0  0  0
  150.0997  137.6762  157.6406 H   0  0  0  0  0  0  0  0  0  0  0  0
  150.1806  138.6790  159.0814 H   0  0  0  0  0  0  0  0  0  0  0  0
  152.3552  137.4433  159.7097 H   0  0  0  0  0  0  0  0  0  0  0  0
  151.6789  135.8984  157.8575 H   0  0  0  0  0  0  0  0  0  0  0  0
  153.6363  138.6391  157.6492 H   0  0  0  0  0  0  0  0  0  0  0  0
  152.0613  139.3497  157.3830 H   0  0  0  0  0  0  0  0  0  0  0  0
  153.9831  138.6934  160.6103 H   0  0  0  0  0  0  0  0  0  0  0  0
  153.2326  143.4638  161.6886 H   0  0  0  0  0  0  0  0  0  0  0  0
  151.5587  141.6609  157.3456 H   0  0  0  0  0  0  0  0  0  0  0  0
  1  2  1  0  0  0  0
  1 26  1  0  0  0  0
  1 27  1  0  0  0  0
  1 28  1  0  0  0  0
  2  3  1  0  0  0  0
  3  8  1  0  0  0  0
  3  4  2  0  0  0  0
  4  5  1  0  0  0  0
  4 29  1  0  0  0  0
  5  6  2  0  0  0  0
  5 30  1  0  0  0  0
  6  7  1  0  0  0  0
  6 31  1  0  0  0  0
  7  8  2  0  0  0  0
  7 32  1  0  0  0  0
  8  9  1  0  0  0  0
  9 10  1  0  0  0  0
  9 33  1  0  0  0  0
  9 34  1  0  0  0  0
 10 11  1  0  0  0  0
 11 12  1  0  0  0  0
 11 35  1  0  0  0  0
 11 36  1  0  0  0  0
 12 13  1  0  0  0  0
 12 14  1  0  0  0  0
 12 37  1  0  0  0  0
 13 38  1  0  0  0  0
 14 15  1  0  0  0  0
 14 39  1  0  0  0  0
 14 40  1  0  0  0  0
 15 25  1  0  0  0  0
 15 16  1  0  0  0  0
 16 17  2  0  0  0  0
 16 41  1  0  0  0  0
 17 18  1  0  0  0  0
 18 25  2  0  0  0  0
 18 19  1  0  0  0  0
 19 20  2  0  0  0  0
 19 42  1  0  0  0  0
 20 21  1  0  0  0  0
 20 22  1  0  0  0  0
 22 23  1  0  0  0  0
 22 24  2  0  0  0  0
 24 25  1  0  0  0  0
 24 43  1  0  0  0  0
M  END
> <s_m_source_file>
AV-unprocessed.smi

> <i_m_source_file_index>
1012

> <i_lp_mmshare_version>
43012

> <i_f3d_flags>
0

> <s_epik_input>
W0NIM11PYzFbY0hdW2NIXVtjSF1bY0hdYzFbQ0gyXU9bQ0gyXVtDQEhdKFtPSF0pW0NIMl1uKFtjSF1uMiljKGMyMylbY0hdYyhGKWMoRilbY0hdMw==

> <s_epik_cmdline>
J2VwaWtfcHl0aG9uJywgJy1waCcsICc3LjAnLCAnLXRuJywgJzgnLCAnLW1hJywgJzIwMCcsICctbWV0YWxfYmluZGluZycsICctaW1hZScsICc8aW5maWxlLm1hZT4nLCAnLW9tYWUnLCAnPG91dGZpbGUubWFlPic=

> <r_lp_tautomer_probability>
1

> <r_epik_Ionization_Penalty>
0.0160257

> <r_epik_Ionization_Penalty_Charging>
0

> <r_epik_Ionization_Penalty_Neutral>
0.0160257

> <r_epik_State_Penalty>
0.0126263

> <r_epik_Charging_Adjusted_Penalty>
0.0126263

> <i_epik_Tot_Q>
0

> <i_epik_Tot_abs_Q>
0

> <r_epik_Metal_State_Penalty>
1.27616e-05

> <b_epik_Metal_Only>
0

> <s_lp_Force_Field>
OPLS_2005

> <r_lp_Energy>
17.5925

> <b_lp_Chiralities_Consistent>
1

> <s_lp_Variant>
AV-unprocessed.smi:1012-2

> <Gold.Version>
5.8.1

> <Gold.Id.Protein>
6NUR|6NUR_protein|mol2

> <Gold.PLP.Fitness>
62.8535

> <Gold.PLP.PLP>
-56.7742

> <Gold.PLP.part.hbond>
-3.4589

> <Gold.PLP.part.metal>
0.0000

> <Gold.PLP.part.buried>
-4.1692

> <Gold.PLP.part.nonpolar>
-47.8208

> <Gold.PLP.part.repulsive>
0.0000

> <Gold.PLP.ligand.clash>
0.0000

> <Gold.PLP.ligand.torsion>
0.6594

> <Gold.PLP.Chemscore.Hbond>
2.4240

> <Gold.PLP.Chemscore.CHOScore>
0.0000

> <Gold.PLP.Chemscore.Metal>
0.0000

> <Gold.Chemscore.Hbonds>
donor molecule, donor type, donor heavy atom, donor atom, acceptor molecule, acceptor atom, score
      P1  H  6896  6907       L1    10  0.98
      P1  H  6931  6943       L1     2  0.82
      P1  H  6934  6947       L1     2  0.63

> <Gold.PLP.Chemscore.Internal.Correction>
0.1263

> <Gold.Rescore>
     Score         DG    S(hbond)    S(metal)    S(lipo)     H(rot)  DE(clash)    DE(int)     intcor
     18.64     -19.64       1.75        0.00     135.34       2.93       0.41       0.59       ----

> <Gold.Chemscore.Fitness>
18.6353

> <Gold.Chemscore.DG>
-19.6352

> <Gold.Chemscore.ZeroCoef>
-5.4800

> <Gold.Chemscore.Hbond>
1.7457

> <Gold.Chemscore.Metal>
0.0000

> <Gold.Chemscore.Lipo>
135.3351

> <Gold.Chemscore.Internal_Hbond>
0.0000

> <Gold.Chemscore.DEClash>
0.4125

> <Gold.Chemscore.DEInternal>
0.5874

> <Gold.Chemscore.Rot>
2.9335

> <Gold.Chemscore.Internal.Correction>
   9.000000E+99

> <Gold.Chemscore.Hbonds>
donor molecule, donor type, donor heavy atom, donor atom, acceptor molecule, acceptor atom, score
      P1  H  6896  6907       L1    10  0.88
      P1  H  6931  6943       L1     2  0.30
      P1  H  6934  6947       L1     2  0.26

> <Gold.Chemscore.Hbond.Weighted>
-5.8307

> <Gold.Chemscore.Metal.Weighted>
-0.0000

> <Gold.Chemscore.Lipo.Weighted>
-15.8342

> <Gold.Chemscore.Internal_Hbond.Weighted>
0.0000

> <Gold.Chemscore.DEClash.Weighted>
0.4125

> <Gold.Chemscore.DEInternal.Weighted>
0.5874

> <Gold.Chemscore.Rot.Weighted>
7.5097

> <Gold.Chemscore.Internal.Correction.Weighted>
   9.000000E+99

> <Gold.Protein.RotatedTorsions>
[ 6907 6896 6895 6894 ] final  -49.27 input  -60.11 | X-H torsion
[ 7974 7965 7964 7962 ] final   69.56 input  175.53 | X-H torsion
[ 8008 7997 7996 7995 ] final -112.55 input   59.86 | X-H torsion
[ 10167 10162 10161 10158 ] final    0.14 input  -65.29 | X-H torsion
[ 10718 10713 10712 10709 ] final  -47.37 input   66.30 | X-H torsion
[ 10763 10752 10751 10750 ] final    1.98 input  -60.55 | X-H torsion
[ 11005 11000 10999 10996 ] final -123.03 input  -57.11 | X-H torsion

> <Gold.Protein.ActiveResidues>
 VAL166  LYS551  ARG553  GLY616  TRP617  ASP618  TYR619  PRO620  LYS621  CYS622 
 ASP623  PHE694  ASN695  SER759  ASP760  ASP761  ALA762  ILE779  LEU786  VAL792 
 PHE793  MET794  SER795  GLU796  ALA797  LYS798  CYS799  TRP800  GLU811  SER814 

> <Gold.Protein.RotatedAtoms>
  150.8822  134.8215  159.7232 H   0  0  0  0  0  0  0  0  0  0  0  0  # atno 6907 bound_to 6896
  152.4785  134.4778  159.9666 H   0  0  0  0  0  0  0  0  0  0  0  0  # atno 6908 bound_to 6896
  151.4852  133.3498  159.2880 H   0  0  0  0  0  0  0  0  0  0  0  0  # atno 6909 bound_to 6896
  145.7889  139.2924  143.1222 H   0  0  0  0  0  0  0  0  0  0  0  0  # atno 7974 bound_to 7965
  155.0070  140.0394  157.2383 H   0  0  0  0  0  0  0  0  0  0  0  0  # atno 8008 bound_to 7997
  154.7494  140.2764  155.6282 H   0  0  0  0  0  0  0  0  0  0  0  0  # atno 8009 bound_to 7997
  156.2882  140.2650  156.2243 H   0  0  0  0  0  0  0  0  0  0  0  0  # atno 8010 bound_to 7997
  140.6742  143.6964  150.7987 H   0  0  0  0  0  0  0  0  0  0  0  0  # atno 10167 bound_to 10162
  156.2091  130.4160  149.9139 H   0  0  0  0  0  0  0  0  0  0  0  0  # atno 10718 bound_to 10713
  153.3012  135.6956  153.7201 H   0  0  0  0  0  0  0  0  0  0  0  0  # atno 10763 bound_to 10752
  153.6115  135.3443  155.2981 H   0  0  0  0  0  0  0  0  0  0  0  0  # atno 10764 bound_to 10752
  154.8551  135.4364  154.2124 H   0  0  0  0  0  0  0  0  0  0  0  0  # atno 10765 bound_to 10752
  140.9950  134.0485  157.3608 H   0  0  0  0  0  0  0  0  0  0  0  0  # atno 11005 bound_to 11000
  145.9997  140.8531  143.0025 LP  0  0  0  0  0  0  0  0  0  0  0  0  # atno 17320 bound_to 7965
  144.6785  140.2335  143.7352 LP  0  0  0  0  0  0  0  0  0  0  0  0  # atno 17321 bound_to 7965
  140.0654  143.5113  152.2607 LP  0  0  0  0  0  0  0  0  0  0  0  0  # atno 17342 bound_to 10162
  139.6025  144.7587  151.3138 LP  0  0  0  0  0  0  0  0  0  0  0  0  # atno 17343 bound_to 10162
  156.6823  130.8863  151.3577 LP  0  0  0  0  0  0  0  0  0  0  0  0  # atno 17370 bound_to 10713
  157.7028  130.9352  150.0839 LP  0  0  0  0  0  0  0  0  0  0  0  0  # atno 17371 bound_to 10713
  139.9010  135.0164  156.7269 LP  0  0  0  0  0  0  0  0  0  0  0  0  # atno 17394 bound_to 11000
  140.6980  133.9331  155.8007 LP  0  0  0  0  0  0  0  0  0  0  0  0  # atno 17395 bound_to 11000

$$$$
