AV-unprocessed.smi:609|AV-procd|sdf|3048|dock8
  -GOLD-   2262023563D 1   1.00000     0.00000
 Structure written by MMmdl.
 42 44  0  0  0  0  0  0  0  0  1 V2000
  153.3608  143.0796  163.4321 C   0  0  0  0  0  0  0  0  0  0  0  0
  152.9353  142.8523  161.9921 C   0  0  0  0  0  0  0  0  0  0  0  0
  152.1095  143.8092  161.3601 C   0  0  0  0  0  0  0  0  0  0  0  0
  151.6918  143.6349  160.0225 C   0  0  0  0  0  0  0  0  0  0  0  0
  150.8970  144.4333  159.2177 N   0  0  0  0  0  0  0  0  0  0  0  0
  150.8761  143.7361  158.0856 C   0  0  0  0  0  0  0  0  0  0  0  0
  151.5646  142.5790  158.0614 N   0  0  0  0  0  0  0  0  0  0  0  0
  151.6850  141.6599  156.9438 C   0  0  0  0  0  0  0  0  0  0  0  0
  150.3188  141.2918  156.3368 C   0  0  1  0  0  0  0  0  0  0  0  0
  150.5002  140.7938  155.0249 O   0  0  0  0  0  0  0  0  0  0  0  0
  149.5820  140.2360  157.1827 C   0  0  0  0  0  0  0  0  0  0  0  0
  147.7753  140.4648  157.1922 S   0  0  0  0  0  0  0  0  0  0  0  0
  147.5320  141.1025  155.5619 C   0  0  0  0  0  0  0  0  0  0  0  0
  148.0531  140.5821  154.4534 N   0  0  0  0  0  0  0  0  0  0  0  0
  147.6061  141.4035  153.4244 C   0  0  0  0  0  0  0  0  0  0  0  0
  146.8260  142.4045  153.9491 C   0  0  0  0  0  0  0  0  0  0  0  0
  146.7904  142.1998  155.3219 N   0  0  0  0  0  0  0  0  0  0  0  0
  146.0841  143.0167  156.2892 C   0  0  0  0  0  0  0  0  0  0  0  0
  152.1254  142.4672  159.3292 C   0  0  0  0  0  0  0  0  0  0  0  0
  152.9475  141.5082  159.9469 C   0  0  0  0  0  0  0  0  0  0  0  0
  153.3563  141.6981  161.2836 C   0  0  0  0  0  0  0  0  0  0  0  0
  154.2451  140.6576  161.9414 C   0  0  0  0  0  0  0  0  0  0  0  0
  152.9489  144.0084  163.8277 H   0  0  0  0  0  0  0  0  0  0  0  0
  154.4470  143.1376  163.5056 H   0  0  0  0  0  0  0  0  0  0  0  0
  153.0138  142.2637  164.0662 H   0  0  0  0  0  0  0  0  0  0  0  0
  151.7892  144.6886  161.8992 H   0  0  0  0  0  0  0  0  0  0  0  0
  150.3301  144.0863  157.2218 H   0  0  0  0  0  0  0  0  0  0  0  0
  152.3342  142.1062  156.1893 H   0  0  0  0  0  0  0  0  0  0  0  0
  152.1923  140.7613  157.2976 H   0  0  0  0  0  0  0  0  0  0  0  0
  149.7149  142.1966  156.2679 H   0  0  0  0  0  0  0  0  0  0  0  0
  149.6534  140.5706  154.6695 H   0  0  0  0  0  0  0  0  0  0  0  0
  149.7962  139.2383  156.7979 H   0  0  0  0  0  0  0  0  0  0  0  0
  149.9437  140.2483  158.2111 H   0  0  0  0  0  0  0  0  0  0  0  0
  147.8782  141.2128  152.3968 H   0  0  0  0  0  0  0  0  0  0  0  0
  146.3085  143.2240  153.4724 H   0  0  0  0  0  0  0  0  0  0  0  0
  145.5706  143.8368  155.7866 H   0  0  0  0  0  0  0  0  0  0  0  0
  146.7909  143.4307  157.0085 H   0  0  0  0  0  0  0  0  0  0  0  0
  145.3482  142.4093  156.8169 H   0  0  0  0  0  0  0  0  0  0  0  0
  153.2627  140.6352  159.3947 H   0  0  0  0  0  0  0  0  0  0  0  0
  154.4741  139.8399  161.2572 H   0  0  0  0  0  0  0  0  0  0  0  0
  153.7536  140.2332  162.8171 H   0  0  0  0  0  0  0  0  0  0  0  0
  155.1884  141.1047  162.2553 H   0  0  0  0  0  0  0  0  0  0  0  0
  1  2  1  0  0  0  0
  1 23  1  0  0  0  0
  1 24  1  0  0  0  0
  1 25  1  0  0  0  0
  2 21  1  0  0  0  0
  2  3  2  0  0  0  0
  3  4  1  0  0  0  0
  3 26  1  0  0  0  0
  4 19  2  0  0  0  0
  4  5  1  0  0  0  0
  5  6  2  0  0  0  0
  6  7  1  0  0  0  0
  6 27  1  0  0  0  0
  7  8  1  0  0  0  0
  7 19  1  0  0  0  0
  8  9  1  0  0  0  0
  8 28  1  0  0  0  0
  8 29  1  0  0  0  0
  9 10  1  0  0  0  0
  9 11  1  0  0  0  0
  9 30  1  0  0  0  0
 10 31  1  0  0  0  0
 11 12  1  0  0  0  0
 11 32  1  0  0  0  0
 11 33  1  0  0  0  0
 12 13  1  0  0  0  0
 13 17  1  0  0  0  0
 13 14  2  0  0  0  0
 14 15  1  0  0  0  0
 15 16  2  0  0  0  0
 15 34  1  0  0  0  0
 16 17  1  0  0  0  0
 16 35  1  0  0  0  0
 17 18  1  0  0  0  0
 18 36  1  0  0  0  0
 18 37  1  0  0  0  0
 18 38  1  0  0  0  0
 19 20  1  0  0  0  0
 20 21  2  0  0  0  0
 20 39  1  0  0  0  0
 21 22  1  0  0  0  0
 22 40  1  0  0  0  0
 22 41  1  0  0  0  0
 22 42  1  0  0  0  0
M  END
> <s_m_source_file>
AV-unprocessed.smi

> <i_m_source_file_index>
609

> <i_lp_mmshare_version>
43012

> <i_f3d_flags>
0

> <s_epik_input>
W0NIM11jKFtjSF0xKWMoW0NIM10pW2NIXWMoYzEyKW4oW2NIXW4yKVtDSDJdW0NASF0oW09IXSlbQ0gyXVNjM25bY0hdW2NIXW4zW0NIM10=

> <s_epik_cmdline>
J2VwaWtfcHl0aG9uJywgJy1waCcsICc3LjAnLCAnLXRuJywgJzgnLCAnLW1hJywgJzIwMCcsICctbWV0YWxfYmluZGluZycsICctaW1hZScsICc8aW5maWxlLm1hZT4nLCAnLW9tYWUnLCAnPG91dGZpbGUubWFlPic=

> <r_lp_tautomer_probability>
1

> <r_epik_Ionization_Penalty>
1.15618

> <r_epik_Ionization_Penalty_Charging>
1.04908

> <r_epik_Ionization_Penalty_Neutral>
0.107097

> <r_epik_State_Penalty>
1.19446

> <r_epik_Charging_Adjusted_Penalty>
2.24354

> <i_epik_Tot_Q>
0

> <i_epik_Tot_abs_Q>
0

> <r_epik_Metal_State_Penalty>
0.487262

> <b_epik_Metal_Only>
0

> <s_lp_Force_Field>
OPLS_2005

> <r_lp_Energy>
7.62781

> <b_lp_Chiralities_Consistent>
1

> <s_lp_Variant>
AV-unprocessed.smi:609-4

> <Gold.Version>
5.8.1

> <Gold.Id.Protein>
6NUR|6NUR_protein|mol2

> <Gold.PLP.Fitness>
54.8293

> <Gold.PLP.PLP>
-47.9755

> <Gold.PLP.part.hbond>
-1.0000

> <Gold.PLP.part.metal>
0.0000

> <Gold.PLP.part.buried>
-7.3877

> <Gold.PLP.part.nonpolar>
-39.0816

> <Gold.PLP.part.repulsive>
0.2192

> <Gold.PLP.ligand.clash>
0.0000

> <Gold.PLP.ligand.torsion>
0.9994

> <Gold.PLP.Chemscore.Hbond>
0.9280

> <Gold.PLP.Chemscore.CHOScore>
2.0000

> <Gold.PLP.Chemscore.Metal>
0.0000

> <Gold.Chemscore.Hbonds>
donor molecule, donor type, donor heavy atom, donor atom, acceptor molecule, acceptor atom, score
      P1  H  7989  7998       L1    10  0.83
      L1  C     6    27       P1  8028  1.00
      L1  C    15    34       P1  7957  1.00

> <Gold.PLP.Chemscore.Internal.Correction>
0.0686

> <Gold.Rescore>
     Score         DG    S(hbond)    S(metal)    S(lipo)     H(rot)  DE(clash)    DE(int)     intcor
     13.17     -15.78       0.93        0.00     114.04       2.41       0.02       2.59       ----

> <Gold.Chemscore.Fitness>
13.1691

> <Gold.Chemscore.DG>
-15.7787

> <Gold.Chemscore.ZeroCoef>
-5.4800

> <Gold.Chemscore.Hbond>
0.9338

> <Gold.Chemscore.Metal>
0.0000

> <Gold.Chemscore.Lipo>
114.0418

> <Gold.Chemscore.Internal_Hbond>
0.0000

> <Gold.Chemscore.DEClash>
0.0179

> <Gold.Chemscore.DEInternal>
2.5916

> <Gold.Chemscore.Rot>
2.4074

> <Gold.Chemscore.Internal.Correction>
   9.000000E+99

> <Gold.Chemscore.Hbonds>
donor molecule, donor type, donor heavy atom, donor atom, acceptor molecule, acceptor atom, score
      P1  H  7989  7998       L1    10  0.37

> <Gold.Chemscore.Hbond.Weighted>
-3.1188

> <Gold.Chemscore.Metal.Weighted>
-0.0000

> <Gold.Chemscore.Lipo.Weighted>
-13.3429

> <Gold.Chemscore.Internal_Hbond.Weighted>
0.0000

> <Gold.Chemscore.DEClash.Weighted>
0.0179

> <Gold.Chemscore.DEInternal.Weighted>
2.5916

> <Gold.Chemscore.Rot.Weighted>
6.1630

> <Gold.Chemscore.Internal.Correction.Weighted>
   9.000000E+99

> <Gold.Protein.RotatedTorsions>
[ 6907 6896 6895 6894 ] final  160.42 input  -60.11 | X-H torsion
[ 7974 7965 7964 7962 ] final  -54.61 input  175.53 | X-H torsion
[ 8008 7997 7996 7995 ] final   79.06 input   59.86 | X-H torsion
[ 10167 10162 10161 10158 ] final  171.13 input  -65.29 | X-H torsion
[ 10718 10713 10712 10709 ] final  123.75 input   66.30 | X-H torsion
[ 10763 10752 10751 10750 ] final -136.67 input  -60.55 | X-H torsion
[ 11005 11000 10999 10996 ] final  -41.35 input  -57.11 | X-H torsion

> <Gold.Protein.ActiveResidues>
 VAL166  LYS551  ARG553  GLY616  TRP617  ASP618  TYR619  PRO620  LYS621  CYS622 
 ASP623  PHE694  ASN695  SER759  ASP760  ASP761  ALA762  ILE779  LEU786  VAL792 
 PHE793  MET794  SER795  GLU796  ALA797  LYS798  CYS799  TRP800  GLU811  SER814 

> <Gold.Protein.RotatedAtoms>
  151.9709  133.3725  159.4070 H   0  0  0  0  0  0  0  0  0  0  0  0  # atno 6907 bound_to 6896
  150.6949  134.4141  159.5184 H   0  0  0  0  0  0  0  0  0  0  0  0  # atno 6908 bound_to 6896
  152.1845  134.8725  160.0574 H   0  0  0  0  0  0  0  0  0  0  0  0  # atno 6909 bound_to 6896
  145.8836  140.8125  142.9827 H   0  0  0  0  0  0  0  0  0  0  0  0  # atno 7974 bound_to 7965
  155.8645  140.3452  155.5778 H   0  0  0  0  0  0  0  0  0  0  0  0  # atno 8008 bound_to 7997
  155.7897  140.0870  157.2035 H   0  0  0  0  0  0  0  0  0  0  0  0  # atno 8009 bound_to 7997
  154.4013  140.1485  156.3135 H   0  0  0  0  0  0  0  0  0  0  0  0  # atno 8010 bound_to 7997
  139.5038  144.3519  151.9913 H   0  0  0  0  0  0  0  0  0  0  0  0  # atno 10167 bound_to 10162
  157.5640  131.1088  150.8488 H   0  0  0  0  0  0  0  0  0  0  0  0  # atno 10718 bound_to 10713
  154.8679  135.3665  154.5099 H   0  0  0  0  0  0  0  0  0  0  0  0  # atno 10763 bound_to 10752
  153.5735  135.7020  153.5499 H   0  0  0  0  0  0  0  0  0  0  0  0  # atno 10764 bound_to 10752
  153.3521  135.4069  155.1616 H   0  0  0  0  0  0  0  0  0  0  0  0  # atno 10765 bound_to 10752
  141.0240  133.6850  156.2446 H   0  0  0  0  0  0  0  0  0  0  0  0  # atno 11005 bound_to 11000
  144.6728  140.1422  143.7436 LP  0  0  0  0  0  0  0  0  0  0  0  0  # atno 17320 bound_to 7965
  145.8993  139.2421  143.1503 LP  0  0  0  0  0  0  0  0  0  0  0  0  # atno 17321 bound_to 7965
  140.2956  144.3704  150.6075 LP  0  0  0  0  0  0  0  0  0  0  0  0  # atno 17342 bound_to 10162
  140.5913  143.2168  151.7248 LP  0  0  0  0  0  0  0  0  0  0  0  0  # atno 17343 bound_to 10162
  156.8978  130.5236  149.5284 LP  0  0  0  0  0  0  0  0  0  0  0  0  # atno 17370 bound_to 10713
  156.0690  130.5727  150.9345 LP  0  0  0  0  0  0  0  0  0  0  0  0  # atno 17371 bound_to 10713
  140.6524  134.5053  157.5578 LP  0  0  0  0  0  0  0  0  0  0  0  0  # atno 17394 bound_to 11000
  139.9164  134.8238  156.1353 LP  0  0  0  0  0  0  0  0  0  0  0  0  # atno 17395 bound_to 11000

$$$$
