AV-unprocessed.smi:3111|AV-procd|sdf|11835|dock8
  -GOLD-   2272017213D 1   1.00000     0.00000
 Structure written by MMmdl.
 30 30  0  0  0  0  0  0  0  0  2 V2000
  148.6640  145.1033  160.3399 C   0  0  0  0  0  0  0  0  0  0  0  0
  148.1908  144.2991  159.2235 N   0  0  0  0  0  0  0  0  0  0  0  0
  147.2814  143.3205  159.3303 C   0  0  0  0  0  0  0  0  0  0  0  0
  146.7477  143.0115  160.3977 O   0  0  0  0  0  0  0  0  0  0  0  0
  146.9190  142.5964  158.0262 C   0  0  0  0  0  0  0  0  0  0  0  0
  148.0563  142.4517  157.1209 N   0  0  0  0  0  0  0  0  0  0  0  0
  148.5386  141.2845  156.6648 C   0  0  0  0  0  0  0  0  0  0  0  0
  148.0979  140.1896  157.0167 O   0  0  0  0  0  0  0  0  0  0  0  0
  149.6717  141.3770  155.6313 C   0  0  1  0  0  0  0  0  0  0  0  0
  150.9918  141.8993  156.2302 C   0  0  0  0  0  0  0  0  0  0  0  0
  149.8566  140.0817  154.9554 N   0  0  0  0  0  0  0  0  0  0  0  0
  150.9577  139.2657  155.0261 C   0  0  0  0  0  0  0  0  0  0  0  0
  150.6959  138.1809  154.2293 C   0  0  0  0  0  0  0  0  0  0  0  0
  149.4474  138.3777  153.7040 N   0  3  0  0  0  0  0  0  0  0  0  0
  148.9383  139.5320  154.1456 C   0  0  0  0  0  0  0  0  0  0  0  0
  149.3939  145.8330  159.9894 H   0  0  0  0  0  0  0  0  0  0  0  0
  149.1424  144.4773  161.0942 H   0  0  0  0  0  0  0  0  0  0  0  0
  147.8396  145.6435  160.8070 H   0  0  0  0  0  0  0  0  0  0  0  0
  148.5802  144.4979  158.3132 H   0  0  0  0  0  0  0  0  0  0  0  0
  146.5497  141.6006  158.2726 H   0  0  0  0  0  0  0  0  0  0  0  0
  146.1020  143.1199  157.5261 H   0  0  0  0  0  0  0  0  0  0  0  0
  148.4748  143.3052  156.7804 H   0  0  0  0  0  0  0  0  0  0  0  0
  149.3569  142.0883  154.8655 H   0  0  0  0  0  0  0  0  0  0  0  0
  150.8520  142.8734  156.7006 H   0  0  0  0  0  0  0  0  0  0  0  0
  151.7491  142.0181  155.4548 H   0  0  0  0  0  0  0  0  0  0  0  0
  151.3958  141.2226  156.9842 H   0  0  0  0  0  0  0  0  0  0  0  0
  151.8255  139.5111  155.6209 H   0  0  0  0  0  0  0  0  0  0  0  0
  151.2896  137.3076  154.0015 H   0  0  0  0  0  0  0  0  0  0  0  0
  147.9772  139.9432  153.8921 H   0  0  0  0  0  0  0  0  0  0  0  0
  148.9761  137.7448  153.0697 H   0  0  0  0  0  0  0  0  0  0  0  0
  1  2  1  0  0  0  0
  1 16  1  0  0  0  0
  1 17  1  0  0  0  0
  1 18  1  0  0  0  0
  2  3  1  0  0  0  0
  2 19  1  0  0  0  0
  3  4  2  0  0  0  0
  3  5  1  0  0  0  0
  5  6  1  0  0  0  0
  5 20  1  0  0  0  0
  5 21  1  0  0  0  0
  6  7  1  0  0  0  0
  6 22  1  0  0  0  0
  7  8  2  0  0  0  0
  7  9  1  0  0  0  0
  9 10  1  0  0  0  0
  9 11  1  0  0  0  0
  9 23  1  0  0  0  0
 10 24  1  0  0  0  0
 10 25  1  0  0  0  0
 10 26  1  0  0  0  0
 11 15  1  0  0  0  0
 11 12  1  0  0  0  0
 12 13  2  0  0  0  0
 12 27  1  0  0  0  0
 13 14  1  0  0  0  0
 13 28  1  0  0  0  0
 14 15  2  0  0  0  0
 14 30  1  0  0  0  0
 15 29  1  0  0  0  0
M  CHG  1  14   1
M  END
> <s_m_source_file>
AV-unprocessed.smi

> <i_m_source_file_index>
3111

> <i_lp_mmshare_version>
43012

> <i_f3d_flags>
0

> <s_epik_input>
W0NIM11bTkhdQyg9TylbQ0gyXVtOSF1DKD1PKVtDQEhdKFtDSDNdKW4xW2NIXVtjSF1uW2NIXTE=

> <s_epik_cmdline>
J2VwaWtfcHl0aG9uJywgJy1waCcsICc3LjAnLCAnLXRuJywgJzgnLCAnLW1hJywgJzIwMCcsICctbWV0YWxfYmluZGluZycsICctaW1hZScsICc8aW5maWxlLm1hZT4nLCAnLW9tYWUnLCAnPG91dGZpbGUubWFlPic=

> <r_lp_tautomer_probability>
1

> <r_epik_Ionization_Penalty>
0.581414

> <r_epik_Ionization_Penalty_Charging>
0

> <r_epik_Ionization_Penalty_Neutral>
0.581414

> <r_epik_State_Penalty>
0.594207

> <r_epik_Charging_Adjusted_Penalty>
0.594207

> <i_epik_Tot_Q>
1

> <i_epik_Tot_abs_Q>
1

> <r_epik_Metal_State_Penalty>
0.784638

> <b_epik_Metal_Only>
0

> <s_lp_Force_Field>
OPLS_2005

> <r_lp_Energy>
5.66591

> <b_lp_Chiralities_Consistent>
1

> <s_lp_Variant>
AV-unprocessed.smi:3111-4

> <Gold.Version>
5.8.1

> <Gold.Id.Protein>
6NUR|6NUR_protein|mol2

> <Gold.PLP.Fitness>
41.5389

> <Gold.PLP.PLP>
-27.2401

> <Gold.PLP.part.hbond>
-6.0000

> <Gold.PLP.part.metal>
0.0000

> <Gold.PLP.part.buried>
-3.3384

> <Gold.PLP.part.nonpolar>
-17.9524

> <Gold.PLP.part.repulsive>
0.2511

> <Gold.PLP.ligand.clash>
0.0000

> <Gold.PLP.ligand.torsion>
0.7656

> <Gold.PLP.Chemscore.Hbond>
5.2445

> <Gold.PLP.Chemscore.CHOScore>
0.0000

> <Gold.PLP.Chemscore.Metal>
0.0000

> <Gold.Chemscore.Hbonds>
donor molecule, donor type, donor heavy atom, donor atom, acceptor molecule, acceptor atom, score
      L1  H     2    19       P1  8029  0.42
      L1  H     6    22       P1  8028  1.00
      L1  H    14    30       P1  7948  2.00
      P1  H  6933  6944       L1     4  0.69
      P1  H  6934  6946       L1     4  0.62

> <Gold.PLP.Chemscore.Internal.Correction>
0.0965

> <Gold.Rescore>
     Score         DG    S(hbond)    S(metal)    S(lipo)     H(rot)  DE(clash)    DE(int)     intcor
     12.00     -14.15       3.03        0.00      38.50       2.33       0.69       1.45       ----

> <Gold.Chemscore.Fitness>
12.0009

> <Gold.Chemscore.DG>
-14.1463

> <Gold.Chemscore.ZeroCoef>
-5.4800

> <Gold.Chemscore.Hbond>
3.0326

> <Gold.Chemscore.Metal>
0.0000

> <Gold.Chemscore.Lipo>
38.5042

> <Gold.Chemscore.Internal_Hbond>
0.0000

> <Gold.Chemscore.DEClash>
0.6943

> <Gold.Chemscore.DEInternal>
1.4512

> <Gold.Chemscore.Rot>
2.3311

> <Gold.Chemscore.Internal.Correction>
   9.000000E+99

> <Gold.Chemscore.Hbonds>
donor molecule, donor type, donor heavy atom, donor atom, acceptor molecule, acceptor atom, score
      L1  H     2    19       P1  8029  0.23
      L1  H     6    22       P1  8028  0.39
      L1  H    14    30       P1  7948  0.95
      P1  H  6933  6944       L1     4  0.15
      P1  H  6934  6946       L1     4  0.44

> <Gold.Chemscore.Hbond.Weighted>
-10.1290

> <Gold.Chemscore.Metal.Weighted>
-0.0000

> <Gold.Chemscore.Lipo.Weighted>
-4.5050

> <Gold.Chemscore.Internal_Hbond.Weighted>
0.0000

> <Gold.Chemscore.DEClash.Weighted>
0.6943

> <Gold.Chemscore.DEInternal.Weighted>
1.4512

> <Gold.Chemscore.Rot.Weighted>
5.9676

> <Gold.Chemscore.Internal.Correction.Weighted>
   9.000000E+99

> <Gold.Protein.RotatedTorsions>
[ 6907 6896 6895 6894 ] final   18.51 input  -60.11 | X-H torsion
[ 7974 7965 7964 7962 ] final  159.78 input  175.53 | X-H torsion
[ 8008 7997 7996 7995 ] final  177.14 input   59.86 | X-H torsion
[ 10167 10162 10161 10158 ] final   35.26 input  -65.29 | X-H torsion
[ 10718 10713 10712 10709 ] final  -56.62 input   66.30 | X-H torsion
[ 10763 10752 10751 10750 ] final -108.11 input  -60.55 | X-H torsion
[ 11005 11000 10999 10996 ] final -108.52 input  -57.11 | X-H torsion

> <Gold.Protein.ActiveResidues>
 VAL166  LYS551  ARG553  GLY616  TRP617  ASP618  TYR619  PRO620  LYS621  CYS622 
 ASP623  PHE694  ASN695  SER759  ASP760  ASP761  ALA762  ILE779  LEU786  VAL792 
 PHE793  MET794  SER795  GLU796  ALA797  LYS798  CYS799  TRP800  GLU811  SER814 

> <Gold.Protein.RotatedAtoms>
  151.8664  135.0505  160.0474 H   0  0  0  0  0  0  0  0  0  0  0  0  # atno 6907 bound_to 6896
  152.2623  133.5303  159.5397 H   0  0  0  0  0  0  0  0  0  0  0  0  # atno 6908 bound_to 6896
  150.7121  134.0729  159.3913 H   0  0  0  0  0  0  0  0  0  0  0  0  # atno 6909 bound_to 6896
  144.7772  139.7665  143.6274 H   0  0  0  0  0  0  0  0  0  0  0  0  # atno 7974 bound_to 7965
  156.0688  140.1366  156.9853 H   0  0  0  0  0  0  0  0  0  0  0  0  # atno 8008 bound_to 7997
  154.4521  140.0976  156.6700 H   0  0  0  0  0  0  0  0  0  0  0  0  # atno 8009 bound_to 7997
  155.5260  140.3457  155.4418 H   0  0  0  0  0  0  0  0  0  0  0  0  # atno 8010 bound_to 7997
  140.4238  144.1422  150.6151 H   0  0  0  0  0  0  0  0  0  0  0  0  # atno 10167 bound_to 10162
  156.1274  130.4161  150.0330 H   0  0  0  0  0  0  0  0  0  0  0  0  # atno 10718 bound_to 10713
  154.8116  135.4650  154.0532 H   0  0  0  0  0  0  0  0  0  0  0  0  # atno 10763 bound_to 10752
  153.1958  135.6862  153.8301 H   0  0  0  0  0  0  0  0  0  0  0  0  # atno 10764 bound_to 10752
  153.7802  135.3257  155.3342 H   0  0  0  0  0  0  0  0  0  0  0  0  # atno 10765 bound_to 10752
  141.0897  133.9077  157.2104 H   0  0  0  0  0  0  0  0  0  0  0  0  # atno 11005 bound_to 11000
  146.1958  139.5224  142.9775 LP  0  0  0  0  0  0  0  0  0  0  0  0  # atno 17320 bound_to 7965
  145.6153  141.0332  143.1944 LP  0  0  0  0  0  0  0  0  0  0  0  0  # atno 17321 bound_to 7965
  140.4504  143.2489  151.9355 LP  0  0  0  0  0  0  0  0  0  0  0  0  # atno 17342 bound_to 10162
  139.4783  144.5568  151.8301 LP  0  0  0  0  0  0  0  0  0  0  0  0  # atno 17343 bound_to 10162
  156.8252  130.9373  151.3639 LP  0  0  0  0  0  0  0  0  0  0  0  0  # atno 17370 bound_to 10713
  157.6455  130.8840  149.9529 LP  0  0  0  0  0  0  0  0  0  0  0  0  # atno 17371 bound_to 10713
  139.9721  135.0125  156.9538 LP  0  0  0  0  0  0  0  0  0  0  0  0  # atno 17394 bound_to 11000
  140.5281  134.0841  155.7308 LP  0  0  0  0  0  0  0  0  0  0  0  0  # atno 17395 bound_to 11000

$$$$
