AV-unprocessed.smi:232|AV-procd|sdf|1780|dock4
  -GOLD-   2262020323D 1   1.00000     0.00000
 Structure written by MMmdl.
 52 55  0  0  0  0  0  0  0  0  1 V2000
  144.8373  136.3741  162.0300 C   0  0  0  0  0  0  0  0  0  0  0  0
  146.3223  136.6472  162.2991 C   0  0  0  0  0  0  0  0  0  0  0  0
  147.2573  135.5928  161.6697 C   0  0  1  0  0  0  0  0  0  0  0  0
  147.2402  134.2360  162.3917 C   0  0  0  0  0  0  0  0  0  0  0  0
  147.4259  133.1934  161.2827 C   0  0  0  0  0  0  0  0  0  0  0  0
  147.6007  134.0195  160.0048 C   0  0  1  0  0  0  0  0  0  0  0  0
  147.0739  133.3173  158.7429 C   0  0  0  0  0  0  0  0  0  0  0  0
  146.9194  135.2779  160.2859 N   0  0  0  0  0  0  0  0  0  0  0  0
  147.1345  136.2827  159.4040 C   0  0  0  0  0  0  0  0  0  0  0  0
  146.1012  136.8205  158.7024 N   0  0  0  0  0  0  0  0  0  0  0  0
  146.3290  137.8056  157.8281 C   0  0  0  0  0  0  0  0  0  0  0  0
  147.4877  138.3859  157.5063 N   0  0  0  0  0  0  0  0  0  0  0  0
  148.5239  137.8437  158.2083 C   0  0  0  0  0  0  0  0  0  0  0  0
  148.4354  136.7986  159.1688 C   0  0  0  0  0  0  0  0  0  0  0  0
  149.6951  136.5085  159.6774 N   0  0  0  0  0  0  0  0  0  0  0  0
  150.4864  137.3371  159.0514 C   0  0  0  0  0  0  0  0  0  0  0  0
  149.8651  138.1763  158.1535 N   0  0  0  0  0  0  0  0  0  0  0  0
  150.4948  139.1905  157.3272 C   0  0  0  0  0  0  0  0  0  0  0  0
  151.9387  139.4940  157.7716 C   0  0  1  0  0  0  0  0  0  0  0  0
  152.6979  139.9992  156.6886 O   0  0  0  0  0  0  0  0  0  0  0  0
  152.0058  140.4535  158.9769 C   0  0  1  0  0  0  0  0  0  0  0  0
  153.3725  140.5723  159.6732 C   0  0  0  0  0  0  0  0  0  0  0  0
  153.6150  142.0712  159.7475 C   0  0  0  0  0  0  0  0  0  0  0  0
  152.2248  142.6623  159.5449 C   0  0  0  0  0  0  0  0  0  0  0  0
  151.6357  141.7772  158.6073 O   0  0  0  0  0  0  0  0  0  0  0  0
  144.2121  137.1200  162.5210 H   0  0  0  0  0  0  0  0  0  0  0  0
  144.5437  135.3941  162.4071 H   0  0  0  0  0  0  0  0  0  0  0  0
  144.6117  136.4052  160.9639 H   0  0  0  0  0  0  0  0  0  0  0  0
  146.5841  137.6405  161.9325 H   0  0  0  0  0  0  0  0  0  0  0  0
  146.4696  136.6743  163.3791 H   0  0  0  0  0  0  0  0  0  0  0  0
  148.2795  135.9763  161.6870 H   0  0  0  0  0  0  0  0  0  0  0  0
  148.0256  134.1788  163.1461 H   0  0  0  0  0  0  0  0  0  0  0  0
  146.2866  134.0674  162.8941 H   0  0  0  0  0  0  0  0  0  0  0  0
  148.2804  132.5402  161.4622 H   0  0  0  0  0  0  0  0  0  0  0  0
  146.5358  132.5657  161.2208 H   0  0  0  0  0  0  0  0  0  0  0  0
  148.6667  134.2157  159.8776 H   0  0  0  0  0  0  0  0  0  0  0  0
  147.5769  132.3621  158.5918 H   0  0  0  0  0  0  0  0  0  0  0  0
  147.2434  133.9212  157.8509 H   0  0  0  0  0  0  0  0  0  0  0  0
  146.0033  133.1235  158.8151 H   0  0  0  0  0  0  0  0  0  0  0  0
  145.4581  138.1820  157.3118 H   0  0  0  0  0  0  0  0  0  0  0  0
  151.5515  137.3616  159.2312 H   0  0  0  0  0  0  0  0  0  0  0  0
  150.4741  138.8558  156.2890 H   0  0  0  0  0  0  0  0  0  0  0  0
  149.8869  140.0947  157.3757 H   0  0  0  0  0  0  0  0  0  0  0  0
  152.4124  138.5575  158.0692 H   0  0  0  0  0  0  0  0  0  0  0  0
  152.1345  140.5385  156.1551 H   0  0  0  0  0  0  0  0  0  0  0  0
  151.2763  140.1258  159.7196 H   0  0  0  0  0  0  0  0  0  0  0  0
  153.3234  140.1362  160.6718 H   0  0  0  0  0  0  0  0  0  0  0  0
  154.1788  140.0703  159.1380 H   0  0  0  0  0  0  0  0  0  0  0  0
  154.0767  142.3840  160.6844 H   0  0  0  0  0  0  0  0  0  0  0  0
  154.2665  142.3789  158.9287 H   0  0  0  0  0  0  0  0  0  0  0  0
  151.6533  142.6464  160.4742 H   0  0  0  0  0  0  0  0  0  0  0  0
  152.2511  143.6863  159.1719 H   0  0  0  0  0  0  0  0  0  0  0  0
  1  2  1  0  0  0  0
  1 26  1  0  0  0  0
  1 27  1  0  0  0  0
  1 28  1  0  0  0  0
  2  3  1  0  0  0  0
  2 29  1  0  0  0  0
  2 30  1  0  0  0  0
  3  8  1  0  0  0  0
  3  4  1  0  0  0  0
  3 31  1  0  0  0  0
  4  5  1  0  0  0  0
  4 32  1  0  0  0  0
  4 33  1  0  0  0  0
  5  6  1  0  0  0  0
  5 34  1  0  0  0  0
  5 35  1  0  0  0  0
  6  7  1  0  0  0  0
  6  8  1  0  0  0  0
  6 36  1  0  0  0  0
  7 37  1  0  0  0  0
  7 38  1  0  0  0  0
  7 39  1  0  0  0  0
  8  9  1  0  0  0  0
  9 14  1  0  0  0  0
  9 10  2  0  0  0  0
 10 11  1  0  0  0  0
 11 12  2  0  0  0  0
 11 40  1  0  0  0  0
 12 13  1  0  0  0  0
 13 17  1  0  0  0  0
 13 14  2  0  0  0  0
 14 15  1  0  0  0  0
 15 16  2  0  0  0  0
 16 17  1  0  0  0  0
 16 41  1  0  0  0  0
 17 18  1  0  0  0  0
 18 19  1  0  0  0  0
 18 42  1  0  0  0  0
 18 43  1  0  0  0  0
 19 20  1  0  0  0  0
 19 21  1  0  0  0  0
 19 44  1  0  0  0  0
 20 45  1  0  0  0  0
 21 25  1  0  0  0  0
 21 22  1  0  0  0  0
 21 46  1  0  0  0  0
 22 23  1  0  0  0  0
 22 47  1  0  0  0  0
 22 48  1  0  0  0  0
 23 24  1  0  0  0  0
 23 49  1  0  0  0  0
 23 50  1  0  0  0  0
 24 25  1  0  0  0  0
 24 51  1  0  0  0  0
 24 52  1  0  0  0  0
M  END
> <s_m_source_file>
AV-unprocessed.smi

> <i_m_source_file_index>
232

> <i_lp_mmshare_version>
43012

> <i_f3d_flags>
0

> <s_epik_input>
W0NIM11bQ0gyXVtDQEBIXTFbQ0gyXVtDSDJdW0NAQEhdKFtDSDNdKU4xYyhuW2NIXW4yKWMoYzIzKW5bY0hdbjNbQ0gyXVtDQEhdKFtPSF0pW0NAQEhdNFtDSDJdW0NIMl1bQ0gyXU80

> <s_epik_cmdline>
J2VwaWtfcHl0aG9uJywgJy1waCcsICc3LjAnLCAnLXRuJywgJzgnLCAnLW1hJywgJzIwMCcsICctbWV0YWxfYmluZGluZycsICctaW1hZScsICc8aW5maWxlLm1hZT4nLCAnLW9tYWUnLCAnPG91dGZpbGUubWFlPic=

> <r_lp_tautomer_probability>
1

> <r_epik_Ionization_Penalty>
0.00258048

> <r_epik_Ionization_Penalty_Charging>
0

> <r_epik_Ionization_Penalty_Neutral>
0.00258048

> <r_epik_State_Penalty>
0.00168551

> <r_epik_Charging_Adjusted_Penalty>
0.00168551

> <i_epik_Tot_Q>
0

> <i_epik_Tot_abs_Q>
0

> <r_epik_Metal_State_Penalty>
-0

> <b_epik_Metal_Only>
0

> <s_lp_Force_Field>
OPLS_2005

> <r_lp_Energy>
53.8555

> <b_lp_Chiralities_Consistent>
1

> <s_lp_Variant>
AV-unprocessed.smi:232-14

> <Gold.Version>
5.8.1

> <Gold.Id.Protein>
6NUR|6NUR_protein|mol2

> <Gold.PLP.Fitness>
44.8326

> <Gold.PLP.PLP>
-39.8785

> <Gold.PLP.part.hbond>
-2.0562

> <Gold.PLP.part.metal>
0.0000

> <Gold.PLP.part.buried>
-4.0996

> <Gold.PLP.part.nonpolar>
-32.8880

> <Gold.PLP.part.repulsive>
0.0001

> <Gold.PLP.ligand.clash>
0.0000

> <Gold.PLP.ligand.torsion>
0.5927

> <Gold.PLP.Chemscore.Hbond>
2.0000

> <Gold.PLP.Chemscore.CHOScore>
0.0000

> <Gold.PLP.Chemscore.Metal>
0.0000

> <Gold.Chemscore.Hbonds>
donor molecule, donor type, donor heavy atom, donor atom, acceptor molecule, acceptor atom, score
      P1  H  6896  6909       L1    15  1.00
      P1  H  7997  8009       L1    20  1.00

> <Gold.PLP.Chemscore.Internal.Correction>
0.1396

> <Gold.Rescore>
     Score         DG    S(hbond)    S(metal)    S(lipo)     H(rot)  DE(clash)    DE(int)     intcor
     15.20     -15.75       1.55        0.00      96.46       2.43       0.09       0.46       ----

> <Gold.Chemscore.Fitness>
15.1964

> <Gold.Chemscore.DG>
-15.7453

> <Gold.Chemscore.ZeroCoef>
-5.4800

> <Gold.Chemscore.Hbond>
1.5538

> <Gold.Chemscore.Metal>
0.0000

> <Gold.Chemscore.Lipo>
96.4628

> <Gold.Chemscore.Internal_Hbond>
0.0000

> <Gold.Chemscore.DEClash>
0.0939

> <Gold.Chemscore.DEInternal>
0.4551

> <Gold.Chemscore.Rot>
2.4260

> <Gold.Chemscore.Internal.Correction>
   9.000000E+99

> <Gold.Chemscore.Hbonds>
donor molecule, donor type, donor heavy atom, donor atom, acceptor molecule, acceptor atom, score
      P1  H  6896  6909       L1    15  0.29
      P1  H  7997  8009       L1    20  0.97

> <Gold.Chemscore.Hbond.Weighted>
-5.1899

> <Gold.Chemscore.Metal.Weighted>
-0.0000

> <Gold.Chemscore.Lipo.Weighted>
-11.2862

> <Gold.Chemscore.Internal_Hbond.Weighted>
0.0000

> <Gold.Chemscore.DEClash.Weighted>
0.0939

> <Gold.Chemscore.DEInternal.Weighted>
0.4551

> <Gold.Chemscore.Rot.Weighted>
6.2107

> <Gold.Chemscore.Internal.Correction.Weighted>
   9.000000E+99

> <Gold.Protein.RotatedTorsions>
[ 6907 6896 6895 6894 ] final   68.82 input  -60.11 | X-H torsion
[ 7974 7965 7964 7962 ] final -138.39 input  175.53 | X-H torsion
[ 8008 7997 7996 7995 ] final -172.97 input   59.86 | X-H torsion
[ 10167 10162 10161 10158 ] final  130.02 input  -65.29 | X-H torsion
[ 10718 10713 10712 10709 ] final -158.45 input   66.30 | X-H torsion
[ 10763 10752 10751 10750 ] final  158.65 input  -60.55 | X-H torsion
[ 11005 11000 10999 10996 ] final  -58.34 input  -57.11 | X-H torsion

> <Gold.Protein.ActiveResidues>
 VAL166  LYS551  ARG553  GLY616  TRP617  ASP618  TYR619  PRO620  LYS621  CYS622 
 ASP623  PHE694  ASN695  SER759  ASP760  ASP761  ALA762  ILE779  LEU786  VAL792 
 PHE793  MET794  SER795  GLU796  ALA797  LYS798  CYS799  TRP800  GLU811  SER814 

> <Gold.Protein.RotatedAtoms>
  152.4646  134.5106  159.9752 H   0  0  0  0  0  0  0  0  0  0  0  0  # atno 6907 bound_to 6896
  151.5146  133.3472  159.2899 H   0  0  0  0  0  0  0  0  0  0  0  0  # atno 6908 bound_to 6896
  150.8624  134.8008  159.7155 H   0  0  0  0  0  0  0  0  0  0  0  0  # atno 6909 bound_to 6896
  144.8763  140.6441  143.5235 H   0  0  0  0  0  0  0  0  0  0  0  0  # atno 7974 bound_to 7965
  155.9514  140.1127  157.0974 H   0  0  0  0  0  0  0  0  0  0  0  0  # atno 8008 bound_to 7997
  154.4110  140.1200  156.5123 H   0  0  0  0  0  0  0  0  0  0  0  0  # atno 8009 bound_to 7997
  155.6837  140.3473  155.4868 H   0  0  0  0  0  0  0  0  0  0  0  0  # atno 8010 bound_to 7997
  139.5450  144.6765  151.4503 H   0  0  0  0  0  0  0  0  0  0  0  0  # atno 10167 bound_to 10162
  156.5543  130.8619  151.2790 H   0  0  0  0  0  0  0  0  0  0  0  0  # atno 10718 bound_to 10713
  154.2194  135.2782  155.2930 H   0  0  0  0  0  0  0  0  0  0  0  0  # atno 10763 bound_to 10752
  154.5714  135.5617  153.7102 H   0  0  0  0  0  0  0  0  0  0  0  0  # atno 10764 bound_to 10752
  153.0045  135.6322  154.2334 H   0  0  0  0  0  0  0  0  0  0  0  0  # atno 10765 bound_to 10752
  141.1203  133.6612  156.4906 H   0  0  0  0  0  0  0  0  0  0  0  0  # atno 11005 bound_to 11000
  145.4037  139.1593  143.4163 LP  0  0  0  0  0  0  0  0  0  0  0  0  # atno 17320 bound_to 7965
  146.2964  140.4136  142.8720 LP  0  0  0  0  0  0  0  0  0  0  0  0  # atno 17321 bound_to 7965
  140.6694  143.8326  150.6981 LP  0  0  0  0  0  0  0  0  0  0  0  0  # atno 17342 bound_to 10162
  140.1746  143.4166  152.1977 LP  0  0  0  0  0  0  0  0  0  0  0  0  # atno 17343 bound_to 10162
  157.7381  130.9808  150.2233 LP  0  0  0  0  0  0  0  0  0  0  0  0  # atno 17370 bound_to 10713
  156.2856  130.3739  149.7892 LP  0  0  0  0  0  0  0  0  0  0  0  0  # atno 17371 bound_to 10713
  140.4526  134.6914  157.5047 LP  0  0  0  0  0  0  0  0  0  0  0  0  # atno 17394 bound_to 11000
  140.0155  134.6625  155.9316 LP  0  0  0  0  0  0  0  0  0  0  0  0  # atno 17395 bound_to 11000

$$$$
