AV-unprocessed.smi:3337|AV-procd|sdf|12867|dock10
  -GOLD-   2272019263D 1   1.00000     0.00000
 Structure written by MMmdl.
 46 47  0  0  0  0  0  0  0  0  2 V2000
  142.2050  136.4899  153.8557 C   0  0  0  0  0  0  0  0  0  0  0  0
  143.0989  136.4805  152.6075 C   0  0  2  0  0  0  0  0  0  0  0  0
  143.2301  135.0650  152.0220 C   0  0  0  0  0  0  0  0  0  0  0  0
  144.1422  135.0738  150.7843 C   0  0  2  0  0  0  0  0  0  0  0  0
  144.3045  133.6638  150.1985 C   0  0  0  0  0  0  0  0  0  0  0  0
  145.5064  135.6994  151.1325 C   0  0  0  0  0  0  0  0  0  0  0  0
  145.3533  137.0670  151.6938 N   0  3  2  0  0  0  0  0  0  0  0  0
  146.6664  137.7292  151.9014 C   0  0  0  0  0  0  0  0  0  0  0  0
  146.5454  139.0817  152.6304 C   0  0  0  0  0  0  0  0  0  0  0  0
  147.8555  139.5975  153.0093 N   0  0  0  0  0  0  0  0  0  0  0  0
  148.3878  139.5145  154.2398 C   0  0  0  0  0  0  0  0  0  0  0  0
  147.8007  138.9851  155.1843 O   0  0  0  0  0  0  0  0  0  0  0  0
  149.7824  140.1379  154.4266 C   0  0  1  0  0  0  0  0  0  0  0  0
  149.7870  141.3215  155.4154 C   0  0  0  0  0  0  0  0  0  0  0  0
  150.7578  139.1195  154.7970 N   0  0  0  0  0  0  0  0  0  0  0  0
  151.0556  137.9604  154.2059 C   0  0  0  0  0  0  0  0  0  0  0  0
  151.9812  137.2546  154.8400 N   0  0  0  0  0  0  0  0  0  0  0  0
  152.2264  138.0921  155.8912 C   0  0  0  0  0  0  0  0  0  0  0  0
  151.5132  139.2179  155.9193 N   0  0  0  0  0  0  0  0  0  0  0  0
  144.4930  137.0658  152.9072 C   0  0  0  0  0  0  0  0  0  0  0  0
  142.6256  135.8719  154.6497 H   0  0  0  0  0  0  0  0  0  0  0  0
  141.2097  136.1068  153.6287 H   0  0  0  0  0  0  0  0  0  0  0  0
  142.0863  137.5003  154.2476 H   0  0  0  0  0  0  0  0  0  0  0  0
  142.6210  137.1136  151.8582 H   0  0  0  0  0  0  0  0  0  0  0  0
  143.6354  134.3884  152.7763 H   0  0  0  0  0  0  0  0  0  0  0  0
  142.2451  134.6793  151.7555 H   0  0  0  0  0  0  0  0  0  0  0  0
  143.6711  135.6945  150.0204 H   0  0  0  0  0  0  0  0  0  0  0  0
  144.7698  132.9868  150.9157 H   0  0  0  0  0  0  0  0  0  0  0  0
  144.9265  133.6785  149.3033 H   0  0  0  0  0  0  0  0  0  0  0  0
  143.3389  133.2405  149.9206 H   0  0  0  0  0  0  0  0  0  0  0  0
  146.0409  135.0720  151.8480 H   0  0  0  0  0  0  0  0  0  0  0  0
  146.1187  135.7434  150.2305 H   0  0  0  0  0  0  0  0  0  0  0  0
  147.3378  137.0580  152.4395 H   0  0  0  0  0  0  0  0  0  0  0  0
  147.1261  137.9068  150.9282 H   0  0  0  0  0  0  0  0  0  0  0  0
  146.0215  139.8089  152.0074 H   0  0  0  0  0  0  0  0  0  0  0  0
  145.9643  138.9811  153.5463 H   0  0  0  0  0  0  0  0  0  0  0  0
  148.4008  140.0422  152.2848 H   0  0  0  0  0  0  0  0  0  0  0  0
  150.0837  140.5304  153.4541 H   0  0  0  0  0  0  0  0  0  0  0  0
  149.1025  142.1075  155.0942 H   0  0  0  0  0  0  0  0  0  0  0  0
  150.7806  141.7650  155.4848 H   0  0  0  0  0  0  0  0  0  0  0  0
  149.4922  141.0161  156.4201 H   0  0  0  0  0  0  0  0  0  0  0  0
  150.5832  137.6241  153.2945 H   0  0  0  0  0  0  0  0  0  0  0  0
  152.9480  137.8622  156.6613 H   0  0  0  0  0  0  0  0  0  0  0  0
  144.3709  138.0813  153.2813 H   0  0  0  0  0  0  0  0  0  0  0  0
  144.9815  136.4953  153.6989 H   0  0  0  0  0  0  0  0  0  0  0  0
  144.8702  137.6064  150.9896 H   0  0  0  0  0  0  0  0  0  0  0  0
  1  2  1  0  0  0  0
  1 21  1  0  0  0  0
  1 22  1  0  0  0  0
  1 23  1  0  0  0  0
  2 20  1  0  0  0  0
  2  3  1  0  0  0  0
  2 24  1  0  0  0  0
  3  4  1  0  0  0  0
  3 25  1  0  0  0  0
  3 26  1  0  0  0  0
  4  5  1  0  0  0  0
  4  6  1  0  0  0  0
  4 27  1  0  0  0  0
  5 28  1  0  0  0  0
  5 29  1  0  0  0  0
  5 30  1  0  0  0  0
  6  7  1  0  0  0  0
  6 31  1  0  0  0  0
  6 32  1  0  0  0  0
  7  8  1  0  0  0  0
  7 20  1  0  0  0  0
  7 46  1  0  0  0  0
  8  9  1  0  0  0  0
  8 33  1  0  0  0  0
  8 34  1  0  0  0  0
  9 10  1  0  0  0  0
  9 35  1  0  0  0  0
  9 36  1  0  0  0  0
 10 11  1  0  0  0  0
 10 37  1  0  0  0  0
 11 12  2  0  0  0  0
 11 13  1  0  0  0  0
 13 14  1  0  0  0  0
 13 15  1  0  0  0  0
 13 38  1  0  0  0  0
 14 39  1  0  0  0  0
 14 40  1  0  0  0  0
 14 41  1  0  0  0  0
 15 19  1  0  0  0  0
 15 16  1  0  0  0  0
 16 17  2  0  0  0  0
 16 42  1  0  0  0  0
 17 18  1  0  0  0  0
 18 19  2  0  0  0  0
 18 43  1  0  0  0  0
 20 44  1  0  0  0  0
 20 45  1  0  0  0  0
M  CHG  1   7   1
M  END
> <s_m_source_file>
AV-unprocessed.smi

> <i_m_source_file_index>
3337

> <i_lp_mmshare_version>
43012

> <i_f3d_flags>
0

> <s_epik_input>
W0NIM11bQ0BASF0xW0NIMl1bQ0BASF0oW0NIM10pW0NIMl1OKFtDSDJdMSlbQ0gyXVtDSDJdW05IXUMoPU8pW0NASF0oW0NIM10pbjJbY0hdbltjSF1uMg==

> <s_epik_cmdline>
J2VwaWtfcHl0aG9uJywgJy1waCcsICc3LjAnLCAnLXRuJywgJzgnLCAnLW1hJywgJzIwMCcsICctbWV0YWxfYmluZGluZycsICctaW1hZScsICc8aW5maWxlLm1hZT4nLCAnLW9tYWUnLCAnPG91dGZpbGUubWFlPic=

> <r_lp_tautomer_probability>
1

> <r_epik_Ionization_Penalty>
0.00175613

> <r_epik_Ionization_Penalty_Charging>
0.00174812

> <r_epik_Ionization_Penalty_Neutral>
8.01354e-06

> <r_epik_State_Penalty>
0.00118332

> <r_epik_Charging_Adjusted_Penalty>
0.00293143

> <i_epik_Tot_Q>
1

> <i_epik_Tot_abs_Q>
1

> <r_epik_Metal_State_Penalty>
-0

> <b_epik_Metal_Only>
0

> <s_lp_Force_Field>
OPLS_2005

> <r_lp_Energy>
22.1533

> <b_lp_Chiralities_Consistent>
1

> <s_lp_Variant>
AV-unprocessed.smi:3337-7

> <Gold.Version>
5.8.1

> <Gold.Id.Protein>
6NUR|6NUR_protein|mol2

> <Gold.PLP.Fitness>
48.1614

> <Gold.PLP.PLP>
-36.7446

> <Gold.PLP.part.hbond>
-3.0000

> <Gold.PLP.part.metal>
0.0000

> <Gold.PLP.part.buried>
-0.8231

> <Gold.PLP.part.nonpolar>
-33.7429

> <Gold.PLP.part.repulsive>
0.2867

> <Gold.PLP.ligand.clash>
0.0000

> <Gold.PLP.ligand.torsion>
0.2734

> <Gold.PLP.Chemscore.Hbond>
2.8080

> <Gold.PLP.Chemscore.CHOScore>
1.1321

> <Gold.PLP.Chemscore.Metal>
0.0000

> <Gold.Chemscore.Hbonds>
donor molecule, donor type, donor heavy atom, donor atom, acceptor molecule, acceptor atom, score
      L1  H     7    46       P1 10171  1.00
      L1  H    10    37       P1  7957  1.00
      P1  H 10752 10764       L1    17  0.90
      L1  C    16    42       P1  7948  0.56
      L1  C    16    42       P1  7949  0.61

> <Gold.PLP.Chemscore.Internal.Correction>
0.1435

> <Gold.Rescore>
     Score         DG    S(hbond)    S(metal)    S(lipo)     H(rot)  DE(clash)    DE(int)     intcor
     15.08     -16.39       2.95        0.00      64.02       2.51       1.02       0.29       ----

> <Gold.Chemscore.Fitness>
15.0769

> <Gold.Chemscore.DG>
-16.3913

> <Gold.Chemscore.ZeroCoef>
-5.4800

> <Gold.Chemscore.Hbond>
2.9503

> <Gold.Chemscore.Metal>
0.0000

> <Gold.Chemscore.Lipo>
64.0201

> <Gold.Chemscore.Internal_Hbond>
0.0000

> <Gold.Chemscore.DEClash>
1.0216

> <Gold.Chemscore.DEInternal>
0.2927

> <Gold.Chemscore.Rot>
2.5129

> <Gold.Chemscore.Internal.Correction>
   9.000000E+99

> <Gold.Chemscore.Hbonds>
donor molecule, donor type, donor heavy atom, donor atom, acceptor molecule, acceptor atom, score
      L1  H     7    46       P1 10171  1.00
      L1  H    10    37       P1  7957  0.96
      P1  H 10752 10764       L1    17  0.88

> <Gold.Chemscore.Hbond.Weighted>
-9.8540

> <Gold.Chemscore.Metal.Weighted>
-0.0000

> <Gold.Chemscore.Lipo.Weighted>
-7.4904

> <Gold.Chemscore.Internal_Hbond.Weighted>
0.0000

> <Gold.Chemscore.DEClash.Weighted>
1.0216

> <Gold.Chemscore.DEInternal.Weighted>
0.2927

> <Gold.Chemscore.Rot.Weighted>
6.4331

> <Gold.Chemscore.Internal.Correction.Weighted>
   9.000000E+99

> <Gold.Protein.RotatedTorsions>
[ 6907 6896 6895 6894 ] final   89.26 input  -60.11 | X-H torsion
[ 7974 7965 7964 7962 ] final -140.86 input  175.53 | X-H torsion
[ 8008 7997 7996 7995 ] final  149.22 input   59.86 | X-H torsion
[ 10167 10162 10161 10158 ] final   97.81 input  -65.29 | X-H torsion
[ 10718 10713 10712 10709 ] final    2.81 input   66.30 | X-H torsion
[ 10763 10752 10751 10750 ] final  -72.55 input  -60.55 | X-H torsion
[ 11005 11000 10999 10996 ] final  172.43 input  -57.11 | X-H torsion

> <Gold.Protein.ActiveResidues>
 VAL166  LYS551  ARG553  GLY616  TRP617  ASP618  TYR619  PRO620  LYS621  CYS622 
 ASP623  PHE694  ASN695  SER759  ASP760  ASP761  ALA762  ILE779  LEU786  VAL792 
 PHE793  MET794  SER795  GLU796  ALA797  LYS798  CYS799  TRP800  GLU811  SER814 

> <Gold.Protein.RotatedAtoms>
  152.5434  134.1994  159.8705 H   0  0  0  0  0  0  0  0  0  0  0  0  # atno 6907 bound_to 6896
  151.1984  133.4618  159.2603 H   0  0  0  0  0  0  0  0  0  0  0  0  # atno 6908 bound_to 6896
  151.1013  134.9986  159.8506 H   0  0  0  0  0  0  0  0  0  0  0  0  # atno 6909 bound_to 6896
  144.8564  140.6149  143.5357 H   0  0  0  0  0  0  0  0  0  0  0  0  # atno 7974 bound_to 7965
  156.2763  140.2107  156.5824 H   0  0  0  0  0  0  0  0  0  0  0  0  # atno 8008 bound_to 7997
  154.7048  140.0517  157.0516 H   0  0  0  0  0  0  0  0  0  0  0  0  # atno 8009 bound_to 7997
  155.0685  140.3174  155.4641 H   0  0  0  0  0  0  0  0  0  0  0  0  # atno 8010 bound_to 7997
  139.7766  144.6903  151.0080 H   0  0  0  0  0  0  0  0  0  0  0  0  # atno 10167 bound_to 10162
  156.8685  130.5611  149.5658 H   0  0  0  0  0  0  0  0  0  0  0  0  # atno 10718 bound_to 10713
  154.4473  135.5926  153.6168 H   0  0  0  0  0  0  0  0  0  0  0  0  # atno 10763 bound_to 10752
  152.9810  135.6012  154.3649 H   0  0  0  0  0  0  0  0  0  0  0  0  # atno 10764 bound_to 10752
  154.3506  135.2841  155.2353 H   0  0  0  0  0  0  0  0  0  0  0  0  # atno 10765 bound_to 10752
  140.3297  134.7368  157.4125 H   0  0  0  0  0  0  0  0  0  0  0  0  # atno 11005 bound_to 11000
  145.4398  139.1537  143.3976 LP  0  0  0  0  0  0  0  0  0  0  0  0  # atno 17320 bound_to 7965
  146.2826  140.4519  142.8770 LP  0  0  0  0  0  0  0  0  0  0  0  0  # atno 17321 bound_to 7965
  140.7816  143.4528  151.0388 LP  0  0  0  0  0  0  0  0  0  0  0  0  # atno 17342 bound_to 10162
  139.8210  143.7819  152.3177 LP  0  0  0  0  0  0  0  0  0  0  0  0  # atno 17343 bound_to 10162
  156.0739  130.5765  150.9436 LP  0  0  0  0  0  0  0  0  0  0  0  0  # atno 17370 bound_to 10713
  157.6209  131.0929  150.8623 LP  0  0  0  0  0  0  0  0  0  0  0  0  # atno 17371 bound_to 10713
  140.0871  134.5651  155.8481 LP  0  0  0  0  0  0  0  0  0  0  0  0  # atno 17394 bound_to 11000
  141.2066  133.6657  156.6255 LP  0  0  0  0  0  0  0  0  0  0  0  0  # atno 17395 bound_to 11000

$$$$
