AV-unprocessed.smi:3132|AV-procd|sdf|11933|dock10
  -GOLD-   2272017323D 1   1.00000     0.00000
 Structure written by MMmdl.
 33 34  0  0  0  0  0  0  0  0  1 V2000
  151.2912  139.7517  155.8713 C   0  0  0  0  0  0  0  0  0  0  0  0
  150.5177  140.8968  156.5388 C   0  0  2  0  0  0  0  0  0  0  0  0
  149.9115  141.8534  155.4905 C   0  0  0  0  0  0  0  0  0  0  0  0
  148.7619  141.2829  154.8117 N   0  0  0  0  0  0  0  0  0  0  0  0
  147.6478  141.9607  154.3331 C   0  0  0  0  0  0  0  0  0  0  0  0
  146.8179  141.0114  153.7811 C   0  0  0  0  0  0  0  0  0  0  0  0
  147.4005  139.7520  153.9017 N   0  0  0  0  0  0  0  0  0  0  0  0
  148.5488  139.9924  154.5213 C   0  0  0  0  0  0  0  0  0  0  0  0
  151.4181  141.6204  157.4351 N   0  0  0  0  0  0  0  0  0  0  0  0
  151.1172  142.7376  158.1159 C   0  0  0  0  0  0  0  0  0  0  0  0
  150.0048  143.2656  158.0947 O   0  0  0  0  0  0  0  0  0  0  0  0
  152.2657  143.3710  158.9085 C   0  0  2  0  0  0  0  0  0  0  0  0
  152.8684  142.4584  159.9925 C   0  0  0  0  0  0  0  0  0  0  0  0
  152.3538  143.0565  161.2862 C   0  0  0  0  0  0  0  0  0  0  0  0
  152.2495  144.5306  160.9228 C   0  0  0  0  0  0  0  0  0  0  0  0
  151.7448  144.5078  159.5964 O   0  0  0  0  0  0  0  0  0  0  0  0
  150.6440  139.1754  155.2094 H   0  0  0  0  0  0  0  0  0  0  0  0
  151.6944  139.0641  156.6157 H   0  0  0  0  0  0  0  0  0  0  0  0
  152.1248  140.1271  155.2771 H   0  0  0  0  0  0  0  0  0  0  0  0
  149.7051  140.4448  157.1108 H   0  0  0  0  0  0  0  0  0  0  0  0
  149.6135  142.7944  155.9553 H   0  0  0  0  0  0  0  0  0  0  0  0
  150.6566  142.1019  154.7339 H   0  0  0  0  0  0  0  0  0  0  0  0
  147.5364  143.0305  154.4308 H   0  0  0  0  0  0  0  0  0  0  0  0
  145.8539  141.1371  153.3108 H   0  0  0  0  0  0  0  0  0  0  0  0
  149.2493  139.2104  154.7754 H   0  0  0  0  0  0  0  0  0  0  0  0
  152.3611  141.2673  157.5102 H   0  0  0  0  0  0  0  0  0  0  0  0
  153.0523  143.6959  158.2251 H   0  0  0  0  0  0  0  0  0  0  0  0
  152.6044  141.4048  159.8910 H   0  0  0  0  0  0  0  0  0  0  0  0
  153.9568  142.5238  159.9613 H   0  0  0  0  0  0  0  0  0  0  0  0
  151.3660  142.6569  161.5197 H   0  0  0  0  0  0  0  0  0  0  0  0
  153.0110  142.8709  162.1360 H   0  0  0  0  0  0  0  0  0  0  0  0
  151.5934  145.0863  161.5927 H   0  0  0  0  0  0  0  0  0  0  0  0
  153.2328  145.0031  160.9293 H   0  0  0  0  0  0  0  0  0  0  0  0
  1  2  1  0  0  0  0
  1 17  1  0  0  0  0
  1 18  1  0  0  0  0
  1 19  1  0  0  0  0
  2  3  1  0  0  0  0
  2  9  1  0  0  0  0
  2 20  1  0  0  0  0
  3  4  1  0  0  0  0
  3 21  1  0  0  0  0
  3 22  1  0  0  0  0
  4  8  1  0  0  0  0
  4  5  1  0  0  0  0
  5  6  2  0  0  0  0
  5 23  1  0  0  0  0
  6  7  1  0  0  0  0
  6 24  1  0  0  0  0
  7  8  2  0  0  0  0
  8 25  1  0  0  0  0
  9 10  1  0  0  0  0
  9 26  1  0  0  0  0
 10 11  2  0  0  0  0
 10 12  1  0  0  0  0
 12 16  1  0  0  0  0
 12 13  1  0  0  0  0
 12 27  1  0  0  0  0
 13 14  1  0  0  0  0
 13 28  1  0  0  0  0
 13 29  1  0  0  0  0
 14 15  1  0  0  0  0
 14 30  1  0  0  0  0
 14 31  1  0  0  0  0
 15 16  1  0  0  0  0
 15 32  1  0  0  0  0
 15 33  1  0  0  0  0
M  END
> <s_m_source_file>
AV-unprocessed.smi

> <i_m_source_file_index>
3132

> <i_lp_mmshare_version>
43012

> <i_f3d_flags>
0

> <s_epik_input>
W2NIXTFuW2NIXVtjSF1uMVtDSDJdW0NAQEhdKFtDSDNdKVtOSF1DKD1PKVtDQEBIXTJbQ0gyXVtDSDJdW0NIMl1PMg==

> <s_epik_cmdline>
J2VwaWtfcHl0aG9uJywgJy1waCcsICc3LjAnLCAnLXRuJywgJzgnLCAnLW1hJywgJzIwMCcsICctbWV0YWxfYmluZGluZycsICctaW1hZScsICc8aW5maWxlLm1hZT4nLCAnLW9tYWUnLCAnPG91dGZpbGUubWFlPic=

> <r_lp_tautomer_probability>
1

> <r_epik_Ionization_Penalty>
0.630322

> <r_epik_Ionization_Penalty_Charging>
0.630322

> <r_epik_Ionization_Penalty_Neutral>
3.82652e-08

> <r_epik_State_Penalty>
0.647117

> <r_epik_Charging_Adjusted_Penalty>
1.27744

> <i_epik_Tot_Q>
0

> <i_epik_Tot_abs_Q>
0

> <r_epik_Metal_State_Penalty>
0.309095

> <b_epik_Metal_Only>
0

> <s_lp_Force_Field>
OPLS_2005

> <r_lp_Energy>
19.5701

> <b_lp_Chiralities_Consistent>
1

> <s_lp_Variant>
AV-unprocessed.smi:3132-5

> <Gold.Version>
5.8.1

> <Gold.Id.Protein>
6NUR|6NUR_protein|mol2

> <Gold.PLP.Fitness>
40.5905

> <Gold.PLP.PLP>
-35.7176

> <Gold.PLP.part.hbond>
0.0000

> <Gold.PLP.part.metal>
0.0000

> <Gold.PLP.part.buried>
-3.2990

> <Gold.PLP.part.nonpolar>
-32.7346

> <Gold.PLP.part.repulsive>
0.7871

> <Gold.PLP.ligand.clash>
0.0000

> <Gold.PLP.ligand.torsion>
0.5232

> <Gold.PLP.Chemscore.Hbond>
0.0000

> <Gold.PLP.Chemscore.CHOScore>
1.9678

> <Gold.PLP.Chemscore.Metal>
0.0000

> <Gold.Chemscore.Hbonds>
donor molecule, donor type, donor heavy atom, donor atom, acceptor molecule, acceptor atom, score
      L1  C     5    23       P1  8028  1.00
      L1  C     6    24       P1 10175  1.00

> <Gold.PLP.Chemscore.Internal.Correction>
0.0160

> <Gold.Rescore>
     Score         DG    S(hbond)    S(metal)    S(lipo)     H(rot)  DE(clash)    DE(int)     intcor
      8.54     -10.43       0.00        0.00      83.05       1.86       0.04       1.86       ----

> <Gold.Chemscore.Fitness>
8.5355

> <Gold.Chemscore.DG>
-10.4262

> <Gold.Chemscore.ZeroCoef>
-5.4800

> <Gold.Chemscore.Hbond>
0.0000

> <Gold.Chemscore.Metal>
0.0000

> <Gold.Chemscore.Lipo>
83.0521

> <Gold.Chemscore.Internal_Hbond>
0.0000

> <Gold.Chemscore.DEClash>
0.0350

> <Gold.Chemscore.DEInternal>
1.8556

> <Gold.Chemscore.Rot>
1.8636

> <Gold.Chemscore.Internal.Correction>
   9.000000E+99

> <Gold.Chemscore.Hbond.Weighted>
-0.0000

> <Gold.Chemscore.Metal.Weighted>
-0.0000

> <Gold.Chemscore.Lipo.Weighted>
-9.7171

> <Gold.Chemscore.Internal_Hbond.Weighted>
0.0000

> <Gold.Chemscore.DEClash.Weighted>
0.0350

> <Gold.Chemscore.DEInternal.Weighted>
1.8556

> <Gold.Chemscore.Rot.Weighted>
4.7709

> <Gold.Chemscore.Internal.Correction.Weighted>
   9.000000E+99

> <Gold.Protein.RotatedTorsions>
[ 6907 6896 6895 6894 ] final  -53.12 input  -60.11 | X-H torsion
[ 7974 7965 7964 7962 ] final    7.37 input  175.53 | X-H torsion
[ 8008 7997 7996 7995 ] final  -58.76 input   59.86 | X-H torsion
[ 10167 10162 10161 10158 ] final  -49.42 input  -65.29 | X-H torsion
[ 10718 10713 10712 10709 ] final  -45.49 input   66.30 | X-H torsion
[ 10763 10752 10751 10750 ] final   -5.59 input  -60.55 | X-H torsion
[ 11005 11000 10999 10996 ] final  135.94 input  -57.11 | X-H torsion

> <Gold.Protein.ActiveResidues>
 VAL166  LYS551  ARG553  GLY616  TRP617  ASP618  TYR619  PRO620  LYS621  CYS622 
 ASP623  PHE694  ASN695  SER759  ASP760  ASP761  ALA762  ILE779  LEU786  VAL792 
 PHE793  MET794  SER795  GLU796  ALA797  LYS798  CYS799  TRP800  GLU811  SER814 

> <Gold.Protein.RotatedAtoms>
  150.8455  134.7762  159.6966 H   0  0  0  0  0  0  0  0  0  0  0  0  # atno 6907 bound_to 6896
  152.4533  134.5343  159.9830 H   0  0  0  0  0  0  0  0  0  0  0  0  # atno 6908 bound_to 6896
  151.5475  133.3385  159.2982 H   0  0  0  0  0  0  0  0  0  0  0  0  # atno 6909 bound_to 6896
  146.2427  140.0093  142.8408 H   0  0  0  0  0  0  0  0  0  0  0  0  # atno 7974 bound_to 7965
  154.4322  140.1077  156.6008 H   0  0  0  0  0  0  0  0  0  0  0  0  # atno 8008 bound_to 7997
  155.5913  140.3492  155.4548 H   0  0  0  0  0  0  0  0  0  0  0  0  # atno 8009 bound_to 7997
  156.0244  140.1246  157.0313 H   0  0  0  0  0  0  0  0  0  0  0  0  # atno 8010 bound_to 7997
  140.6686  143.2698  151.4213 H   0  0  0  0  0  0  0  0  0  0  0  0  # atno 10167 bound_to 10162
  156.2279  130.4170  149.8911 H   0  0  0  0  0  0  0  0  0  0  0  0  # atno 10718 bound_to 10713
  153.4007  135.7005  153.6428 H   0  0  0  0  0  0  0  0  0  0  0  0  # atno 10763 bound_to 10752
  153.4963  135.3662  155.2518 H   0  0  0  0  0  0  0  0  0  0  0  0  # atno 10764 bound_to 10752
  154.8710  135.4101  154.3341 H   0  0  0  0  0  0  0  0  0  0  0  0  # atno 10765 bound_to 10752
  140.0013  134.9477  157.0078 H   0  0  0  0  0  0  0  0  0  0  0  0  # atno 11005 bound_to 11000
  145.1342  140.9535  143.4526 LP  0  0  0  0  0  0  0  0  0  0  0  0  # atno 17320 bound_to 7965
  145.0358  139.3302  143.6002 LP  0  0  0  0  0  0  0  0  0  0  0  0  # atno 17321 bound_to 7965
  139.5944  144.1429  152.2127 LP  0  0  0  0  0  0  0  0  0  0  0  0  # atno 17342 bound_to 10162
  140.0793  144.5714  150.7134 LP  0  0  0  0  0  0  0  0  0  0  0  0  # atno 17343 bound_to 10162
  156.6536  130.8753  151.3535 LP  0  0  0  0  0  0  0  0  0  0  0  0  # atno 17370 bound_to 10713
  157.7119  130.9450  150.1118 LP  0  0  0  0  0  0  0  0  0  0  0  0  # atno 17371 bound_to 10713
  140.4723  134.1374  155.7205 LP  0  0  0  0  0  0  0  0  0  0  0  0  # atno 17394 bound_to 11000
  141.1644  133.8732  157.1757 LP  0  0  0  0  0  0  0  0  0  0  0  0  # atno 17395 bound_to 11000

$$$$
