AV-unprocessed.smi:2044|AV-procd|sdf|8300|dock8
  -GOLD-   2272010563D 1   1.00000     0.00000
 Structure written by MMmdl.
 40 41  0  0  0  0  0  0  0  0  2 V2000
  150.8453  142.1533  156.4521 C   0  0  0  0  0  0  0  0  0  0  0  0
  150.4409  141.0479  155.5383 C   0  0  0  0  0  0  0  0  0  0  0  0
  149.2324  140.6455  155.0444 C   0  0  0  0  0  0  0  0  0  0  0  0
  149.5758  139.5228  154.2363 C   0  0  0  0  0  0  0  0  0  0  0  0
  148.6767  138.7159  153.4925 N   0  0  0  0  0  0  0  0  0  0  0  0
  147.3378  138.8029  153.4250 C   0  0  0  0  0  0  0  0  0  0  0  0
  146.6473  139.6393  154.0067 O   0  0  0  0  0  0  0  0  0  0  0  0
  146.8293  137.8574  152.6202 N   0  0  0  0  0  0  0  0  0  0  0  0
  145.4092  137.6620  152.3347 C   0  0  0  0  0  0  0  0  0  0  0  0
  144.9772  136.1717  152.3710 C   0  0  2  0  0  0  0  0  0  0  0  0
  145.3176  135.4654  151.0352 C   0  0  0  0  0  0  0  0  0  0  0  0
  143.5276  136.0665  152.7451 N   0  3  0  0  0  0  0  0  0  0  0  0
  143.0120  134.6843  152.9515 C   0  0  0  0  0  0  0  0  0  0  0  0
  141.5114  134.6958  153.2913 C   0  0  0  0  0  0  0  0  0  0  0  0
  141.2799  135.5009  154.4373 O   0  0  0  0  0  0  0  0  0  0  0  0
  141.6667  136.8482  154.2120 C   0  0  0  0  0  0  0  0  0  0  0  0
  143.1752  136.9058  153.9231 C   0  0  0  0  0  0  0  0  0  0  0  0
  150.8718  139.2704  154.2402 N   0  0  0  0  0  0  0  0  0  0  0  0
  151.4352  140.2453  155.0718 O   0  0  0  0  0  0  0  0  0  0  0  0
  149.9717  142.6857  156.8291 H   0  0  0  0  0  0  0  0  0  0  0  0
  151.4808  142.8705  155.9327 H   0  0  0  0  0  0  0  0  0  0  0  0
  151.3992  141.7656  157.3070 H   0  0  0  0  0  0  0  0  0  0  0  0
  148.2697  141.0919  155.2434 H   0  0  0  0  0  0  0  0  0  0  0  0
  149.1082  137.9858  152.9452 H   0  0  0  0  0  0  0  0  0  0  0  0
  147.4727  137.2139  152.1824 H   0  0  0  0  0  0  0  0  0  0  0  0
  144.8779  138.2433  153.0857 H   0  0  0  0  0  0  0  0  0  0  0  0
  145.1400  138.1035  151.3734 H   0  0  0  0  0  0  0  0  0  0  0  0
  145.5556  135.6644  153.1451 H   0  0  0  0  0  0  0  0  0  0  0  0
  146.3745  135.5550  150.7873 H   0  0  0  0  0  0  0  0  0  0  0  0
  144.7499  135.8867  150.2049 H   0  0  0  0  0  0  0  0  0  0  0  0
  145.1251  134.3933  151.0749 H   0  0  0  0  0  0  0  0  0  0  0  0
  143.1336  134.0839  152.0506 H   0  0  0  0  0  0  0  0  0  0  0  0
  143.5740  134.1982  153.7507 H   0  0  0  0  0  0  0  0  0  0  0  0
  140.9244  135.0645  152.4483 H   0  0  0  0  0  0  0  0  0  0  0  0
  141.1673  133.6821  153.4976 H   0  0  0  0  0  0  0  0  0  0  0  0
  141.0929  137.2763  153.3882 H   0  0  0  0  0  0  0  0  0  0  0  0
  141.4334  137.4345  155.1009 H   0  0  0  0  0  0  0  0  0  0  0  0
  143.7296  136.5591  154.7969 H   0  0  0  0  0  0  0  0  0  0  0  0
  143.4529  137.9460  153.7659 H   0  0  0  0  0  0  0  0  0  0  0  0
  143.0101  136.4339  151.9590 H   0  0  0  0  0  0  0  0  0  0  0  0
  1  2  1  0  0  0  0
  1 20  1  0  0  0  0
  1 21  1  0  0  0  0
  1 22  1  0  0  0  0
  2 19  1  0  0  0  0
  2  3  2  0  0  0  0
  3  4  1  0  0  0  0
  3 23  1  0  0  0  0
  4  5  1  0  0  0  0
  4 18  2  0  0  0  0
  5  6  1  0  0  0  0
  5 24  1  0  0  0  0
  6  7  2  0  0  0  0
  6  8  1  0  0  0  0
  8  9  1  0  0  0  0
  8 25  1  0  0  0  0
  9 10  1  0  0  0  0
  9 26  1  0  0  0  0
  9 27  1  0  0  0  0
 10 11  1  0  0  0  0
 10 12  1  0  0  0  0
 10 28  1  0  0  0  0
 11 29  1  0  0  0  0
 11 30  1  0  0  0  0
 11 31  1  0  0  0  0
 12 17  1  0  0  0  0
 12 13  1  0  0  0  0
 12 40  1  0  0  0  0
 13 14  1  0  0  0  0
 13 32  1  0  0  0  0
 13 33  1  0  0  0  0
 14 15  1  0  0  0  0
 14 34  1  0  0  0  0
 14 35  1  0  0  0  0
 15 16  1  0  0  0  0
 16 17  1  0  0  0  0
 16 36  1  0  0  0  0
 16 37  1  0  0  0  0
 17 38  1  0  0  0  0
 17 39  1  0  0  0  0
 18 19  1  0  0  0  0
M  CHG  1  12   1
M  END
> <s_m_source_file>
AV-unprocessed.smi

> <i_m_source_file_index>
2044

> <i_lp_mmshare_version>
43012

> <i_f3d_flags>
0

> <s_epik_input>
W0NIM11jMVtjSF1jKG5vMSlbTkhdQyg9TylbTkhdW0NIMl1bQ0BIXShbQ0gzXSlOMltDSDJdW0NIMl1PW0NIMl1bQ0gyXTI=

> <s_epik_cmdline>
J2VwaWtfcHl0aG9uJywgJy1waCcsICc3LjAnLCAnLXRuJywgJzgnLCAnLW1hJywgJzIwMCcsICctbWV0YWxfYmluZGluZycsICctaW1hZScsICc8aW5maWxlLm1hZT4nLCAnLW9tYWUnLCAnPG91dGZpbGUubWFlPic=

> <r_epik_Ionization_Penalty>
0.707076

> <r_epik_Ionization_Penalty_Charging>
0.707039

> <r_epik_Ionization_Penalty_Neutral>
3.67886e-05

> <r_epik_State_Penalty>
0.730276

> <r_epik_Charging_Adjusted_Penalty>
1.43732

> <i_epik_Tot_Q>
1

> <i_epik_Tot_abs_Q>
1

> <r_epik_Metal_State_Penalty>
0.743216

> <b_epik_Metal_Only>
0

> <s_lp_Force_Field>
OPLS_2005

> <r_lp_Energy>
20.903

> <b_lp_Chiralities_Consistent>
1

> <s_lp_Variant>
AV-unprocessed.smi:2044-3

> <Gold.Version>
5.8.1

> <Gold.Id.Protein>
6NUR|6NUR_protein|mol2

> <Gold.PLP.Fitness>
40.4799

> <Gold.PLP.PLP>
-32.9929

> <Gold.PLP.part.hbond>
-6.0000

> <Gold.PLP.part.metal>
0.0000

> <Gold.PLP.part.buried>
-4.6021

> <Gold.PLP.part.nonpolar>
-23.8517

> <Gold.PLP.part.repulsive>
0.5461

> <Gold.PLP.ligand.clash>
0.0000

> <Gold.PLP.ligand.torsion>
0.4467

> <Gold.PLP.Chemscore.Hbond>
2.7771

> <Gold.PLP.Chemscore.CHOScore>
0.0000

> <Gold.PLP.Chemscore.Metal>
0.0000

> <Gold.Chemscore.Hbonds>
donor molecule, donor type, donor heavy atom, donor atom, acceptor molecule, acceptor atom, score
      L1  H     5    24       P1  7948  0.99
      L1  H     8    25       P1  7948  1.00
      P1  H 11000 11005       L1    15  0.74

> <Gold.PLP.Chemscore.Internal.Correction>
0.0491

> <Gold.Rescore>
     Score         DG    S(hbond)    S(metal)    S(lipo)     H(rot)  DE(clash)    DE(int)     intcor
     15.60     -17.17       2.73        0.00      57.55       1.62       0.03       1.54       ----

> <Gold.Chemscore.Fitness>
15.5970

> <Gold.Chemscore.DG>
-17.1658

> <Gold.Chemscore.ZeroCoef>
-5.4800

> <Gold.Chemscore.Hbond>
2.7256

> <Gold.Chemscore.Metal>
0.0000

> <Gold.Chemscore.Lipo>
57.5463

> <Gold.Chemscore.Internal_Hbond>
0.0000

> <Gold.Chemscore.DEClash>
0.0330

> <Gold.Chemscore.DEInternal>
1.5358

> <Gold.Chemscore.Rot>
1.6213

> <Gold.Chemscore.Internal.Correction>
   9.000000E+99

> <Gold.Chemscore.Hbonds>
donor molecule, donor type, donor heavy atom, donor atom, acceptor molecule, acceptor atom, score
      L1  H     5    24       P1  7948  0.87
      L1  H     8    25       P1  7948  1.00
      P1  H 11000 11005       L1    15  0.46

> <Gold.Chemscore.Hbond.Weighted>
-9.1036

> <Gold.Chemscore.Metal.Weighted>
-0.0000

> <Gold.Chemscore.Lipo.Weighted>
-6.7329

> <Gold.Chemscore.Internal_Hbond.Weighted>
0.0000

> <Gold.Chemscore.DEClash.Weighted>
0.0330

> <Gold.Chemscore.DEInternal.Weighted>
1.5358

> <Gold.Chemscore.Rot.Weighted>
4.1506

> <Gold.Chemscore.Internal.Correction.Weighted>
   9.000000E+99

> <Gold.Protein.RotatedTorsions>
[ 6907 6896 6895 6894 ] final   13.11 input  -60.11 | X-H torsion
[ 7974 7965 7964 7962 ] final  153.24 input  175.53 | X-H torsion
[ 8008 7997 7996 7995 ] final -135.17 input   59.86 | X-H torsion
[ 10167 10162 10161 10158 ] final   13.69 input  -65.29 | X-H torsion
[ 10718 10713 10712 10709 ] final -119.00 input   66.30 | X-H torsion
[ 10763 10752 10751 10750 ] final  -13.32 input  -60.55 | X-H torsion
[ 11005 11000 10999 10996 ] final   37.99 input  -57.11 | X-H torsion

> <Gold.Protein.ActiveResidues>
 VAL166  LYS551  ARG553  GLY616  TRP617  ASP618  TYR619  PRO620  LYS621  CYS622 
 ASP623  PHE694  ASN695  SER759  ASP760  ASP761  ALA762  ILE779  LEU786  VAL792 
 PHE793  MET794  SER795  GLU796  ALA797  LYS798  CYS799  TRP800  GLU811  SER814 

> <Gold.Protein.RotatedAtoms>
  151.7811  135.0761  160.0373 H   0  0  0  0  0  0  0  0  0  0  0  0  # atno 6907 bound_to 6896
  152.3222  133.5862  159.5761 H   0  0  0  0  0  0  0  0  0  0  0  0  # atno 6908 bound_to 6896
  150.7376  133.9909  159.3649 H   0  0  0  0  0  0  0  0  0  0  0  0  # atno 6909 bound_to 6896
  144.8168  139.6774  143.6118 H   0  0  0  0  0  0  0  0  0  0  0  0  # atno 7974 bound_to 7965
  155.3742  140.0490  157.3045 H   0  0  0  0  0  0  0  0  0  0  0  0  # atno 8008 bound_to 7997
  154.5115  140.2193  155.9110 H   0  0  0  0  0  0  0  0  0  0  0  0  # atno 8009 bound_to 7997
  156.1587  140.3121  155.8776 H   0  0  0  0  0  0  0  0  0  0  0  0  # atno 8010 bound_to 7997
  140.5986  143.8651  150.6942 H   0  0  0  0  0  0  0  0  0  0  0  0  # atno 10167 bound_to 10162
  156.1148  130.6277  150.9361 H   0  0  0  0  0  0  0  0  0  0  0  0  # atno 10718 bound_to 10713
  153.5116  135.7016  153.5778 H   0  0  0  0  0  0  0  0  0  0  0  0  # atno 10763 bound_to 10752
  153.3866  135.3906  155.1894 H   0  0  0  0  0  0  0  0  0  0  0  0  # atno 10764 bound_to 10752
  154.8703  135.3848  154.4596 H   0  0  0  0  0  0  0  0  0  0  0  0  # atno 10765 bound_to 10752
  140.2170  134.3686  155.8022 H   0  0  0  0  0  0  0  0  0  0  0  0  # atno 11005 bound_to 11000
  146.2471  139.6121  142.9452 LP  0  0  0  0  0  0  0  0  0  0  0  0  # atno 17320 bound_to 7965
  145.5197  141.0432  143.2442 LP  0  0  0  0  0  0  0  0  0  0  0  0  # atno 17321 bound_to 7965
  140.2192  143.3822  152.1657 LP  0  0  0  0  0  0  0  0  0  0  0  0  # atno 17342 bound_to 10162
  139.5275  144.7120  151.5176 LP  0  0  0  0  0  0  0  0  0  0  0  0  # atno 17343 bound_to 10162
  157.6331  131.0919  150.8403 LP  0  0  0  0  0  0  0  0  0  0  0  0  # atno 17370 bound_to 10713
  156.8508  130.5080  149.5312 LP  0  0  0  0  0  0  0  0  0  0  0  0  # atno 17371 bound_to 10713
  141.2224  133.7173  156.8513 LP  0  0  0  0  0  0  0  0  0  0  0  0  # atno 17394 bound_to 11000
  140.1890  134.8979  157.3038 LP  0  0  0  0  0  0  0  0  0  0  0  0  # atno 17395 bound_to 11000

$$$$
