AV-unprocessed.smi:287|AV-procd|sdf|2204|dock3
  -GOLD-   2262022 23D 1   1.00000     0.00000
 Structure written by MMmdl.
 55 58  0  0  0  0  0  0  0  0  1 V2000
  152.1483  142.5445  158.2334 C   0  0  0  0  0  0  0  0  0  0  0  0
  151.5570  141.4631  157.3958 C   0  0  0  0  0  0  0  0  0  0  0  0
  151.0249  141.4245  156.1400 C   0  0  0  0  0  0  0  0  0  0  0  0
  150.6269  140.0774  155.8865 C   0  0  0  0  0  0  0  0  0  0  0  0
  149.9765  139.5577  154.6114 C   0  0  2  0  0  0  0  0  0  0  0  0
  150.8884  138.5079  153.9552 C   0  0  0  0  0  0  0  0  0  0  0  0
  149.8008  140.5669  153.6354 O   0  0  0  0  0  0  0  0  0  0  0  0
  148.5736  138.9591  154.8631 C   0  0  0  0  0  0  0  0  0  0  0  0
  148.6172  137.5525  155.2411 N   0  0  0  0  0  0  0  0  0  0  0  0
  147.8992  136.6260  154.5723 C   0  0  0  0  0  0  0  0  0  0  0  0
  148.3273  135.3496  154.7137 N   0  0  0  0  0  0  0  0  0  0  0  0
  147.6933  134.3566  154.0867 C   0  0  0  0  0  0  0  0  0  0  0  0
  146.6282  134.4230  153.2881 N   0  0  0  0  0  0  0  0  0  0  0  0
  146.1776  135.7038  153.1429 C   0  0  0  0  0  0  0  0  0  0  0  0
  146.7599  136.8588  153.7442 C   0  0  0  0  0  0  0  0  0  0  0  0
  146.0479  137.9862  153.3528 N   0  0  0  0  0  0  0  0  0  0  0  0
  145.1143  137.5242  152.5686 C   0  0  0  0  0  0  0  0  0  0  0  0
  145.0936  136.1560  152.4087 N   0  0  0  0  0  0  0  0  0  0  0  0
  144.1525  135.3562  151.5454 C   0  0  1  0  0  0  0  0  0  0  0  0
  144.8723  134.7559  150.5131 O   0  0  0  0  0  0  0  0  0  0  0  0
  145.2907  133.4611  150.9240 C   0  0  2  0  0  0  0  0  0  0  0  0
  145.7796  132.6251  149.7285 C   0  0  0  0  0  0  0  0  0  0  0  0
  146.3355  131.4099  150.1838 O   0  0  0  0  0  0  0  0  0  0  0  0
  144.0280  132.9505  151.6278 C   0  0  2  0  0  0  0  0  0  0  0  0
  143.0934  132.4563  150.6816 O   0  0  0  0  0  0  0  0  0  0  0  0
  143.5284  134.2000  152.3578 C   0  0  2  0  0  0  0  0  0  0  0  0
  142.1163  134.2684  152.4358 O   0  0  0  0  0  0  0  0  0  0  0  0
  150.9410  139.3975  157.0386 C   0  0  0  0  0  0  0  0  0  0  0  0
  150.7874  137.9796  157.4798 C   0  0  0  0  0  0  0  0  0  0  0  0
  151.5092  140.2288  157.9561 O   0  0  0  0  0  0  0  0  0  0  0  0
  143.4404  136.0895  151.1652 H   0  0  0  0  0  0  0  0  0  0  0  0
  146.0869  133.5556  151.6657 H   0  0  0  0  0  0  0  0  0  0  0  0
  144.2570  132.1451  152.3262 H   0  0  0  0  0  0  0  0  0  0  0  0
  143.9315  134.1962  153.3708 H   0  0  0  0  0  0  0  0  0  0  0  0
  152.3585  143.4301  157.6336 H   0  0  0  0  0  0  0  0  0  0  0  0
  153.0831  142.2158  158.6882 H   0  0  0  0  0  0  0  0  0  0  0  0
  151.4645  142.8307  159.0327 H   0  0  0  0  0  0  0  0  0  0  0  0
  150.9352  142.2689  155.4728 H   0  0  0  0  0  0  0  0  0  0  0  0
  151.0538  137.6584  154.6190 H   0  0  0  0  0  0  0  0  0  0  0  0
  151.8651  138.9280  153.7109 H   0  0  0  0  0  0  0  0  0  0  0  0
  150.4550  138.1216  153.0317 H   0  0  0  0  0  0  0  0  0  0  0  0
  149.4993  140.1624  152.8365 H   0  0  0  0  0  0  0  0  0  0  0  0
  148.0350  139.5372  155.6155 H   0  0  0  0  0  0  0  0  0  0  0  0
  147.9996  139.0280  153.9380 H   0  0  0  0  0  0  0  0  0  0  0  0
  149.2179  137.3294  156.0221 H   0  0  0  0  0  0  0  0  0  0  0  0
  148.0955  133.3673  154.2479 H   0  0  0  0  0  0  0  0  0  0  0  0
  144.4042  138.1786  152.0842 H   0  0  0  0  0  0  0  0  0  0  0  0
  144.9421  132.3773  149.0761 H   0  0  0  0  0  0  0  0  0  0  0  0
  146.5089  133.1729  149.1310 H   0  0  0  0  0  0  0  0  0  0  0  0
  147.2627  131.4166  150.0015 H   0  0  0  0  0  0  0  0  0  0  0  0
  142.4665  133.1399  150.4992 H   0  0  0  0  0  0  0  0  0  0  0  0
  141.8313  133.7636  153.1821 H   0  0  0  0  0  0  0  0  0  0  0  0
  149.7539  137.6512  157.3699 H   0  0  0  0  0  0  0  0  0  0  0  0
  151.0678  137.8592  158.5265 H   0  0  0  0  0  0  0  0  0  0  0  0
  151.4193  137.3201  156.8850 H   0  0  0  0  0  0  0  0  0  0  0  0
  1  2  1  0  0  0  0
  1 35  1  0  0  0  0
  1 36  1  0  0  0  0
  1 37  1  0  0  0  0
  2 30  1  0  0  0  0
  2  3  2  0  0  0  0
  3  4  1  0  0  0  0
  3 38  1  0  0  0  0
  4  5  1  0  0  0  0
  4 28  2  0  0  0  0
  5  6  1  0  0  0  0
  5  7  1  0  0  0  0
  5  8  1  0  0  0  0
  6 39  1  0  0  0  0
  6 40  1  0  0  0  0
  6 41  1  0  0  0  0
  7 42  1  0  0  0  0
  8  9  1  0  0  0  0
  8 43  1  0  0  0  0
  8 44  1  0  0  0  0
  9 10  1  0  0  0  0
  9 45  1  0  0  0  0
 10 15  1  0  0  0  0
 10 11  2  0  0  0  0
 11 12  1  0  0  0  0
 12 13  2  0  0  0  0
 12 46  1  0  0  0  0
 13 14  1  0  0  0  0
 14 18  1  0  0  0  0
 14 15  2  0  0  0  0
 15 16  1  0  0  0  0
 16 17  2  0  0  0  0
 17 18  1  0  0  0  0
 17 47  1  0  0  0  0
 18 19  1  0  0  0  0
 19 31  1  0  0  0  0
 19 26  1  0  0  0  0
 19 20  1  0  0  0  0
 20 21  1  0  0  0  0
 21 32  1  0  0  0  0
 21 22  1  0  0  0  0
 21 24  1  0  0  0  0
 22 23  1  0  0  0  0
 22 48  1  0  0  0  0
 22 49  1  0  0  0  0
 23 50  1  0  0  0  0
 24 33  1  0  0  0  0
 24 25  1  0  0  0  0
 24 26  1  0  0  0  0
 25 51  1  0  0  0  0
 26 34  1  0  0  0  0
 26 27  1  0  0  0  0
 27 52  1  0  0  0  0
 28 29  1  0  0  0  0
 28 30  1  0  0  0  0
 29 53  1  0  0  0  0
 29 54  1  0  0  0  0
 29 55  1  0  0  0  0
M  END
> <s_m_source_file>
AV-unprocessed.smi

> <i_m_source_file_index>
287

> <i_lp_mmshare_version>
43012

> <i_f3d_flags>
0

> <s_epik_input>
W0NIM11jMVtjSF1jKGMobzEpW0NIM10pW0NAQF0oW0NIM10pKFtPSF0pW0NIMl1bTkhdYyhuW2NIXW4yKWMoYzIzKW5bY0hdbjNbQ0BASF00T1tDQEhdKFtDSDJdW09IXSlbQ0BASF0oW09IXSlbQ0BIXTRbT0hd

> <s_epik_cmdline>
J2VwaWtfcHl0aG9uJywgJy1waCcsICc3LjAnLCAnLXRuJywgJzgnLCAnLW1hJywgJzIwMCcsICctbWV0YWxfYmluZGluZycsICctaW1hZScsICc8aW5maWxlLm1hZT4nLCAnLW9tYWUnLCAnPG91dGZpbGUubWFlPic=

> <r_lp_tautomer_probability>
1

> <r_epik_Ionization_Penalty>
0.000992612

> <r_epik_Ionization_Penalty_Charging>
0

> <r_epik_Ionization_Penalty_Neutral>
0.000992612

> <r_epik_State_Penalty>
-0

> <r_epik_Charging_Adjusted_Penalty>
0

> <i_epik_Tot_Q>
0

> <i_epik_Tot_abs_Q>
0

> <r_epik_Metal_State_Penalty>
-0

> <b_epik_Metal_Only>
0

> <s_epik_Chemistry_Notes>
This compound contains an acetal/aminal-like group ( X-CH(R)-Y where X, Y are N, S, or O) that may be acid/base labile, releasing an aldehyde.

> <s_lp_Force_Field>
OPLS_2005

> <r_lp_Energy>
48.2808

> <b_lp_Chiralities_Consistent>
1

> <s_lp_Variant>
AV-unprocessed.smi:287-28

> <Gold.Version>
5.8.1

> <Gold.Id.Protein>
6NUR|6NUR_protein|mol2

> <Gold.PLP.Fitness>
52.9691

> <Gold.PLP.PLP>
-37.1000

> <Gold.PLP.part.hbond>
-5.2594

> <Gold.PLP.part.metal>
0.0000

> <Gold.PLP.part.buried>
-3.6368

> <Gold.PLP.part.nonpolar>
-28.1997

> <Gold.PLP.part.repulsive>
0.6050

> <Gold.PLP.ligand.clash>
0.0000

> <Gold.PLP.ligand.torsion>
0.7159

> <Gold.PLP.Chemscore.Hbond>
3.7190

> <Gold.PLP.Chemscore.CHOScore>
2.0000

> <Gold.PLP.Chemscore.Metal>
0.0000

> <Gold.Chemscore.Hbonds>
donor molecule, donor type, donor heavy atom, donor atom, acceptor molecule, acceptor atom, score
      L1  H     7    42       P1  7957  0.96
      L1  H    23    50       P1 10747  1.00
      L1  H    25    51       P1 10186  0.68
      P1  H  7989  7998       L1     7  0.36
      P1  H  8011  8017       L1     7  0.04
      L1  C    17    47       P1 10171  1.00
      L1  C    17    47       P1 10175  1.00

> <Gold.PLP.Chemscore.Internal.Correction>
0.1439

> <Gold.Rescore>
     Score         DG    S(hbond)    S(metal)    S(lipo)     H(rot)  DE(clash)    DE(int)     intcor
     10.36     -12.98       3.32        0.00      84.66       5.27       0.37       2.25       ----

> <Gold.Chemscore.Fitness>
10.3596

> <Gold.Chemscore.DG>
-12.9820

> <Gold.Chemscore.ZeroCoef>
-5.4800

> <Gold.Chemscore.Hbond>
3.3176

> <Gold.Chemscore.Metal>
0.0000

> <Gold.Chemscore.Lipo>
84.6590

> <Gold.Chemscore.Internal_Hbond>
0.0000

> <Gold.Chemscore.DEClash>
0.3713

> <Gold.Chemscore.DEInternal>
2.2510

> <Gold.Chemscore.Rot>
5.2672

> <Gold.Chemscore.Internal.Correction>
   9.000000E+99

> <Gold.Chemscore.Hbonds>
donor molecule, donor type, donor heavy atom, donor atom, acceptor molecule, acceptor atom, score
      L1  H     7    42       P1  7957  0.92
      L1  H    23    50       P1 10747  0.98
      L1  H    25    51       P1 10186  0.69
      P1  H  7989  7998       L1     7  0.02

> <Gold.Chemscore.Hbond.Weighted>
-11.0808

> <Gold.Chemscore.Metal.Weighted>
-0.0000

> <Gold.Chemscore.Lipo.Weighted>
-9.9051

> <Gold.Chemscore.Internal_Hbond.Weighted>
0.0000

> <Gold.Chemscore.DEClash.Weighted>
0.3713

> <Gold.Chemscore.DEInternal.Weighted>
2.2510

> <Gold.Chemscore.Rot.Weighted>
13.4839

> <Gold.Chemscore.Internal.Correction.Weighted>
   9.000000E+99

> <Gold.Protein.RotatedTorsions>
[ 6907 6896 6895 6894 ] final  -32.36 input  -60.11 | X-H torsion
[ 7974 7965 7964 7962 ] final  -80.14 input  175.53 | X-H torsion
[ 8008 7997 7996 7995 ] final   50.29 input   59.86 | X-H torsion
[ 10167 10162 10161 10158 ] final  -61.84 input  -65.29 | X-H torsion
[ 10718 10713 10712 10709 ] final   59.97 input   66.30 | X-H torsion
[ 10763 10752 10751 10750 ] final  -87.68 input  -60.55 | X-H torsion
[ 11005 11000 10999 10996 ] final -170.68 input  -57.11 | X-H torsion

> <Gold.Protein.ActiveResidues>
 VAL166  LYS551  ARG553  GLY616  TRP617  ASP618  TYR619  PRO620  LYS621  CYS622 
 ASP623  PHE694  ASN695  SER759  ASP760  ASP761  ALA762  ILE779  LEU786  VAL792 
 PHE793  MET794  SER795  GLU796  ALA797  LYS798  CYS799  TRP800  GLU811  SER814 

> <Gold.Protein.RotatedAtoms>
  151.0798  134.9851  159.8350 H   0  0  0  0  0  0  0  0  0  0  0  0  # atno 6907 bound_to 6896
  152.5418  134.2195  159.8792 H   0  0  0  0  0  0  0  0  0  0  0  0  # atno 6908 bound_to 6896
  151.2225  133.4451  159.2634 H   0  0  0  0  0  0  0  0  0  0  0  0  # atno 6909 bound_to 6896
  145.5639  140.9477  143.1432 H   0  0  0  0  0  0  0  0  0  0  0  0  # atno 7974 bound_to 7965
  155.4164  140.3444  155.4267 H   0  0  0  0  0  0  0  0  0  0  0  0  # atno 8008 bound_to 7997
  156.1419  140.1544  156.8939 H   0  0  0  0  0  0  0  0  0  0  0  0  # atno 8009 bound_to 7997
  154.4978  140.0823  156.7714 H   0  0  0  0  0  0  0  0  0  0  0  0  # atno 8010 bound_to 7997
  140.5979  143.2355  151.5994 H   0  0  0  0  0  0  0  0  0  0  0  0  # atno 10167 bound_to 10162
  157.5717  130.8912  149.9278 H   0  0  0  0  0  0  0  0  0  0  0  0  # atno 10718 bound_to 10713
  154.6363  135.5404  153.7738 H   0  0  0  0  0  0  0  0  0  0  0  0  # atno 10763 bound_to 10752
  153.0310  135.6448  154.1227 H   0  0  0  0  0  0  0  0  0  0  0  0  # atno 10764 bound_to 10752
  154.1154  135.2924  155.3201 H   0  0  0  0  0  0  0  0  0  0  0  0  # atno 10765 bound_to 10752
  140.5168  134.5748  157.5036 H   0  0  0  0  0  0  0  0  0  0  0  0  # atno 11005 bound_to 11000
  144.7470  139.7295  143.7288 LP  0  0  0  0  0  0  0  0  0  0  0  0  # atno 17320 bound_to 7965
  146.1832  139.5034  142.9853 LP  0  0  0  0  0  0  0  0  0  0  0  0  # atno 17321 bound_to 7965
  139.5271  144.3027  152.1060 LP  0  0  0  0  0  0  0  0  0  0  0  0  # atno 17342 bound_to 10162
  140.2202  144.4473  150.6345 LP  0  0  0  0  0  0  0  0  0  0  0  0  # atno 17343 bound_to 10162
  156.0762  130.3678  150.0672 LP  0  0  0  0  0  0  0  0  0  0  0  0  # atno 17370 bound_to 10713
  156.8824  130.9561  151.3598 LP  0  0  0  0  0  0  0  0  0  0  0  0  # atno 17371 bound_to 10713
  139.9628  134.7424  156.0201 LP  0  0  0  0  0  0  0  0  0  0  0  0  # atno 17394 bound_to 11000
  141.1356  133.6576  156.3584 LP  0  0  0  0  0  0  0  0  0  0  0  0  # atno 17395 bound_to 11000

$$$$
