AV-unprocessed.smi:864|AV-procd|sdf|3989|dock8
  -GOLD-   22720 1463D 1   1.00000     0.00000
 Structure written by MMmdl.
 45 47  0  0  0  0  0  0  0  0  2 V2000
  154.0356  135.7301  164.3238 C   0  0  0  0  0  0  0  0  0  0  0  0
  154.8055  136.1796  163.1005 C   0  0  0  0  0  0  0  0  0  0  0  0
  154.1701  136.7500  161.9770 C   0  0  0  0  0  0  0  0  0  0  0  0
  154.9494  137.1289  160.8646 C   0  0  0  0  0  0  0  0  0  0  0  0
  156.3478  136.9295  160.8964 C   0  0  0  0  0  0  0  0  0  0  0  0
  157.2077  137.2666  159.6892 C   0  0  0  0  0  0  0  0  0  0  0  0
  157.8383  138.6741  159.7511 C   0  0  0  0  0  0  0  0  0  0  0  0
  156.9917  139.6321  160.4604 N   0  0  0  0  0  0  0  0  0  0  0  0
  155.7515  139.9861  160.0921 C   0  0  0  0  0  0  0  0  0  0  0  0
  155.2030  139.6063  159.0570 O   0  0  0  0  0  0  0  0  0  0  0  0
  155.1558  140.7546  161.0135 N   0  0  0  0  0  0  0  0  0  0  0  0
  153.7588  141.1772  160.9583 C   0  0  1  0  0  0  0  0  0  0  0  0
  153.4035  142.1865  162.0638 C   0  0  0  0  0  0  0  0  0  0  0  0
  152.6688  143.2877  161.3221 C   0  0  0  0  0  0  0  0  0  0  0  0
  152.0927  144.2066  161.9030 O   0  0  0  0  0  0  0  0  0  0  0  0
  152.7319  143.1092  159.9979 N   0  0  0  0  0  0  0  0  0  0  0  0
  152.0331  143.9045  159.0314 C   0  0  0  0  0  0  0  0  0  0  0  0
  152.7836  144.6877  157.9713 C   0  0  0  0  0  0  0  0  0  0  0  0
  152.1419  145.4088  159.1313 C   0  0  0  0  0  0  0  0  0  0  0  0
  153.4512  141.8962  159.6325 C   0  0  0  0  0  0  0  0  0  0  0  0
  156.9292  136.3691  162.0539 C   0  0  0  0  0  0  0  0  0  0  0  0
  156.1475  136.0159  163.0976 N   0  3  0  0  0  0  0  0  0  0  0  0
  152.9715  135.9445  164.2193 H   0  0  0  0  0  0  0  0  0  0  0  0
  154.4006  136.2431  165.2141 H   0  0  0  0  0  0  0  0  0  0  0  0
  154.1528  134.6561  164.4716 H   0  0  0  0  0  0  0  0  0  0  0  0
  153.0985  136.8864  161.9606 H   0  0  0  0  0  0  0  0  0  0  0  0
  154.4741  137.5495  159.9906 H   0  0  0  0  0  0  0  0  0  0  0  0
  157.9962  136.5188  159.5944 H   0  0  0  0  0  0  0  0  0  0  0  0
  156.5982  137.1775  158.7892 H   0  0  0  0  0  0  0  0  0  0  0  0
  158.7996  138.6218  160.2624 H   0  0  0  0  0  0  0  0  0  0  0  0
  158.0527  139.0323  158.7427 H   0  0  0  0  0  0  0  0  0  0  0  0
  157.3550  140.0043  161.3261 H   0  0  0  0  0  0  0  0  0  0  0  0
  155.6838  141.0209  161.8318 H   0  0  0  0  0  0  0  0  0  0  0  0
  153.1120  140.3019  161.0464 H   0  0  0  0  0  0  0  0  0  0  0  0
  152.7744  141.7425  162.8360 H   0  0  0  0  0  0  0  0  0  0  0  0
  154.2874  142.6122  162.5405 H   0  0  0  0  0  0  0  0  0  0  0  0
  151.0647  143.5166  158.7184 H   0  0  0  0  0  0  0  0  0  0  0  0
  153.8708  144.6585  157.9520 H   0  0  0  0  0  0  0  0  0  0  0  0
  152.3096  144.7893  156.9972 H   0  0  0  0  0  0  0  0  0  0  0  0
  151.2444  145.9899  158.9297 H   0  0  0  0  0  0  0  0  0  0  0  0
  152.8025  145.8206  159.8919 H   0  0  0  0  0  0  0  0  0  0  0  0
  154.3621  142.1723  159.0980 H   0  0  0  0  0  0  0  0  0  0  0  0
  152.8505  141.2660  158.9752 H   0  0  0  0  0  0  0  0  0  0  0  0
  157.9850  136.1692  162.1655 H   0  0  0  0  0  0  0  0  0  0  0  0
  156.5895  135.5989  163.9173 H   0  0  0  0  0  0  0  0  0  0  0  0
  1  2  1  0  0  0  0
  1 23  1  0  0  0  0
  1 24  1  0  0  0  0
  1 25  1  0  0  0  0
  2 22  1  0  0  0  0
  2  3  2  0  0  0  0
  3  4  1  0  0  0  0
  3 26  1  0  0  0  0
  4  5  2  0  0  0  0
  4 27  1  0  0  0  0
  5  6  1  0  0  0  0
  5 21  1  0  0  0  0
  6  7  1  0  0  0  0
  6 28  1  0  0  0  0
  6 29  1  0  0  0  0
  7  8  1  0  0  0  0
  7 30  1  0  0  0  0
  7 31  1  0  0  0  0
  8  9  1  0  0  0  0
  8 32  1  0  0  0  0
  9 10  2  0  0  0  0
  9 11  1  0  0  0  0
 11 12  1  0  0  0  0
 11 33  1  0  0  0  0
 12 20  1  0  0  0  0
 12 13  1  0  0  0  0
 12 34  1  0  0  0  0
 13 14  1  0  0  0  0
 13 35  1  0  0  0  0
 13 36  1  0  0  0  0
 14 15  2  0  0  0  0
 14 16  1  0  0  0  0
 16 17  1  0  0  0  0
 16 20  1  0  0  0  0
 17 19  1  0  0  0  0
 17 18  1  0  0  0  0
 17 37  1  0  0  0  0
 18 19  1  0  0  0  0
 18 38  1  0  0  0  0
 18 39  1  0  0  0  0
 19 40  1  0  0  0  0
 19 41  1  0  0  0  0
 20 42  1  0  0  0  0
 20 43  1  0  0  0  0
 21 22  2  0  0  0  0
 21 44  1  0  0  0  0
 22 45  1  0  0  0  0
M  CHG  1  22   1
M  END
> <s_m_source_file>
AV-unprocessed.smi

> <i_m_source_file_index>
864

> <i_lp_mmshare_version>
43012

> <i_f3d_flags>
0

> <s_epik_input>
W0NIM11jMVtjSF1bY0hdYyhbY0hdbjEpW0NIMl1bQ0gyXVtOSF1DKD1PKVtOSF1bQ0BASF0yW0NIMl1DKD1PKU4oW0NIMl0yKVtDSF0zW0NIMl1bQ0gyXTM=

> <s_epik_cmdline>
J2VwaWtfcHl0aG9uJywgJy1waCcsICc3LjAnLCAnLXRuJywgJzgnLCAnLW1hJywgJzIwMCcsICctbWV0YWxfYmluZGluZycsICctaW1hZScsICc8aW5maWxlLm1hZT4nLCAnLW9tYWUnLCAnPG91dGZpbGUubWFlPic=

> <r_epik_Ionization_Penalty>
1.42657

> <r_epik_Ionization_Penalty_Charging>
1.42653

> <r_epik_Ionization_Penalty_Neutral>
4.57062e-05

> <r_epik_State_Penalty>
1.51075

> <r_epik_Charging_Adjusted_Penalty>
2.93728

> <i_epik_Tot_Q>
1

> <i_epik_Tot_abs_Q>
1

> <r_epik_Metal_State_Penalty>
1.56242

> <b_epik_Metal_Only>
0

> <s_lp_Force_Field>
OPLS_2005

> <r_lp_Energy>
39.135

> <b_lp_Chiralities_Consistent>
1

> <s_lp_Variant>
AV-unprocessed.smi:864-4

> <Gold.Version>
5.8.1

> <Gold.Id.Protein>
6NUR|6NUR_protein|mol2

> <Gold.PLP.Fitness>
48.9663

> <Gold.PLP.PLP>
-47.3326

> <Gold.PLP.part.hbond>
-1.9865

> <Gold.PLP.part.metal>
0.0000

> <Gold.PLP.part.buried>
-5.7118

> <Gold.PLP.part.nonpolar>
-39.6332

> <Gold.PLP.part.repulsive>
0.6440

> <Gold.PLP.ligand.clash>
0.0000

> <Gold.PLP.ligand.torsion>
0.7707

> <Gold.PLP.Chemscore.Hbond>
1.0000

> <Gold.PLP.Chemscore.CHOScore>
0.0000

> <Gold.PLP.Chemscore.Metal>
0.0000

> <Gold.Chemscore.Hbonds>
donor molecule, donor type, donor heavy atom, donor atom, acceptor molecule, acceptor atom, score
      P1  H  7997  8008       L1    10  1.00

> <Gold.PLP.Chemscore.Internal.Correction>
0.1751

> <Gold.Rescore>
     Score         DG    S(hbond)    S(metal)    S(lipo)     H(rot)  DE(clash)    DE(int)     intcor
     15.33     -16.90       1.00        0.00     109.28       1.84       0.26       1.31       ----

> <Gold.Chemscore.Fitness>
15.3339

> <Gold.Chemscore.DG>
-16.8998

> <Gold.Chemscore.ZeroCoef>
-5.4800

> <Gold.Chemscore.Hbond>
0.9998

> <Gold.Chemscore.Metal>
0.0000

> <Gold.Chemscore.Lipo>
109.2801

> <Gold.Chemscore.Internal_Hbond>
0.0000

> <Gold.Chemscore.DEClash>
0.2559

> <Gold.Chemscore.DEInternal>
1.3100

> <Gold.Chemscore.Rot>
1.8381

> <Gold.Chemscore.Internal.Correction>
   9.000000E+99

> <Gold.Chemscore.Hbonds>
donor molecule, donor type, donor heavy atom, donor atom, acceptor molecule, acceptor atom, score
      P1  H  7997  8008       L1    10  1.00

> <Gold.Chemscore.Hbond.Weighted>
-3.3395

> <Gold.Chemscore.Metal.Weighted>
-0.0000

> <Gold.Chemscore.Lipo.Weighted>
-12.7858

> <Gold.Chemscore.Internal_Hbond.Weighted>
0.0000

> <Gold.Chemscore.DEClash.Weighted>
0.2559

> <Gold.Chemscore.DEInternal.Weighted>
1.3100

> <Gold.Chemscore.Rot.Weighted>
4.7054

> <Gold.Chemscore.Internal.Correction.Weighted>
   9.000000E+99

> <Gold.Protein.RotatedTorsions>
[ 6907 6896 6895 6894 ] final -134.23 input  -60.11 | X-H torsion
[ 7974 7965 7964 7962 ] final   12.23 input  175.53 | X-H torsion
[ 8008 7997 7996 7995 ] final -133.40 input   59.86 | X-H torsion
[ 10167 10162 10161 10158 ] final  140.07 input  -65.29 | X-H torsion
[ 10718 10713 10712 10709 ] final   31.79 input   66.30 | X-H torsion
[ 10763 10752 10751 10750 ] final   75.93 input  -60.55 | X-H torsion
[ 11005 11000 10999 10996 ] final   64.20 input  -57.11 | X-H torsion

> <Gold.Protein.ActiveResidues>
 VAL166  LYS551  ARG553  GLY616  TRP617  ASP618  TYR619  PRO620  LYS621  CYS622 
 ASP623  PHE694  ASN695  SER759  ASP760  ASP761  ALA762  ILE779  LEU786  VAL792 
 PHE793  MET794  SER795  GLU796  ALA797  LYS798  CYS799  TRP800  GLU811  SER814 

> <Gold.Protein.RotatedAtoms>
  150.9834  133.6222  159.2718 H   0  0  0  0  0  0  0  0  0  0  0  0  # atno 6907 bound_to 6896
  151.3469  135.0875  159.9399 H   0  0  0  0  0  0  0  0  0  0  0  0  # atno 6908 bound_to 6896
  152.5223  133.9434  159.7692 H   0  0  0  0  0  0  0  0  0  0  0  0  # atno 6909 bound_to 6896
  146.2355  139.9367  142.8489 H   0  0  0  0  0  0  0  0  0  0  0  0  # atno 7974 bound_to 7965
  155.3449  140.0474  157.3045 H   0  0  0  0  0  0  0  0  0  0  0  0  # atno 8008 bound_to 7997
  154.5257  140.2240  155.8858 H   0  0  0  0  0  0  0  0  0  0  0  0  # atno 8009 bound_to 7997
  156.1737  140.3090  155.9026 H   0  0  0  0  0  0  0  0  0  0  0  0  # atno 8010 bound_to 7997
  139.5059  144.6256  151.5944 H   0  0  0  0  0  0  0  0  0  0  0  0  # atno 10167 bound_to 10162
  157.2769  130.7236  149.6535 H   0  0  0  0  0  0  0  0  0  0  0  0  # atno 10718 bound_to 10713
  153.0689  135.4970  154.8261 H   0  0  0  0  0  0  0  0  0  0  0  0  # atno 10763 bound_to 10752
  154.6994  135.2999  154.9366 H   0  0  0  0  0  0  0  0  0  0  0  0  # atno 10764 bound_to 10752
  154.0095  135.6756  153.4817 H   0  0  0  0  0  0  0  0  0  0  0  0  # atno 10765 bound_to 10752
  139.9974  134.6496  155.9987 H   0  0  0  0  0  0  0  0  0  0  0  0  # atno 11005 bound_to 11000
  145.1992  140.9847  143.4165 LP  0  0  0  0  0  0  0  0  0  0  0  0  # atno 17320 bound_to 7965
  144.9788  139.3804  143.6272 LP  0  0  0  0  0  0  0  0  0  0  0  0  # atno 17321 bound_to 7965
  140.5972  143.9674  150.6362 LP  0  0  0  0  0  0  0  0  0  0  0  0  # atno 17342 bound_to 10162
  140.2874  143.3347  152.1094 LP  0  0  0  0  0  0  0  0  0  0  0  0  # atno 17343 bound_to 10162
  155.9664  130.4350  150.5073 LP  0  0  0  0  0  0  0  0  0  0  0  0  # atno 17370 bound_to 10713
  157.3009  131.0645  151.2069 LP  0  0  0  0  0  0  0  0  0  0  0  0  # atno 17371 bound_to 10713
  141.1615  133.6538  156.4335 LP  0  0  0  0  0  0  0  0  0  0  0  0  # atno 17394 bound_to 11000
  140.4792  134.6680  157.5163 LP  0  0  0  0  0  0  0  0  0  0  0  0  # atno 17395 bound_to 11000

$$$$
