AV-unprocessed.smi:227|AV-procd|sdf|1739|dock2
  -GOLD-   2262020243D 1   1.00000     0.00000
 Structure written by MMmdl.
 54 58  0  0  0  0  0  0  0  0  1 V2000
  152.0910  136.0462  157.8120 O   0  0  0  0  0  0  0  0  0  0  0  0
  151.7933  136.0538  156.4307 C   0  0  0  0  0  0  0  0  0  0  0  0
  150.5088  136.8673  156.1280 C   0  0  2  0  0  0  0  0  0  0  0  0
  149.2302  136.0529  156.4853 C   0  0  0  0  0  0  0  0  0  0  0  0
  148.7513  135.1926  155.4127 N   0  0  0  0  0  0  0  0  0  0  0  0
  149.4760  134.2337  154.7427 C   0  0  0  0  0  0  0  0  0  0  0  0
  148.8260  133.5969  153.8082 N   0  0  0  0  0  0  0  0  0  0  0  0
  147.5490  134.1448  153.8426 C   0  0  0  0  0  0  0  0  0  0  0  0
  146.3506  133.9298  153.1010 C   0  0  0  0  0  0  0  0  0  0  0  0
  146.2465  133.0432  152.0744 N   0  0  0  0  0  0  0  0  0  0  0  0
  145.1334  132.1101  151.9919 C   0  0  2  0  0  0  0  0  0  0  0  0
  145.5654  131.1926  150.8350 C   0  0  0  0  0  0  0  0  0  0  0  0
  146.2984  132.1876  149.9196 C   0  0  0  0  0  0  0  0  0  0  0  0
  146.1209  133.5038  150.6987 C   0  0  1  0  0  0  0  0  0  0  0  0
  144.6466  133.9607  150.5568 C   0  0  2  0  0  0  0  0  0  0  0  0
  144.4129  135.4501  150.8781 C   0  0  0  0  0  0  0  0  0  0  0  0
  144.8798  136.2556  149.8170 O   0  0  0  0  0  0  0  0  0  0  0  0
  143.9505  132.9865  151.5292 C   0  0  0  0  0  0  0  0  0  0  0  0
  145.2574  134.6524  153.4630 N   0  0  0  0  0  0  0  0  0  0  0  0
  145.3317  135.5449  154.4533 C   0  0  0  0  0  0  0  0  0  0  0  0
  146.3830  135.8661  155.2073 N   0  0  0  0  0  0  0  0  0  0  0  0
  147.4810  135.1346  154.8648 C   0  0  0  0  0  0  0  0  0  0  0  0
  150.4922  137.3978  154.6590 C   0  0  1  0  0  0  0  0  0  0  0  0
  149.2983  138.2920  154.3357 C   0  0  0  0  0  0  0  0  0  0  0  0
  149.7480  139.6818  154.7875 C   0  0  0  0  0  0  0  0  0  0  0  0
  151.1702  139.6419  154.8174 O   0  0  0  0  0  0  0  0  0  0  0  0
  151.6098  138.3913  154.3087 C   0  0  0  0  0  0  0  0  0  0  0  0
  152.5576  136.8406  158.0233 H   0  0  0  0  0  0  0  0  0  0  0  0
  152.6636  136.4869  155.9433 H   0  0  0  0  0  0  0  0  0  0  0  0
  151.7079  135.0287  156.0707 H   0  0  0  0  0  0  0  0  0  0  0  0
  150.5236  137.7342  156.7900 H   0  0  0  0  0  0  0  0  0  0  0  0
  149.4116  135.4267  157.3590 H   0  0  0  0  0  0  0  0  0  0  0  0
  148.4162  136.7093  156.7880 H   0  0  0  0  0  0  0  0  0  0  0  0
  150.5128  134.0264  154.9641 H   0  0  0  0  0  0  0  0  0  0  0  0
  144.9301  131.5558  152.9089 H   0  0  0  0  0  0  0  0  0  0  0  0
  146.2497  130.4181  151.1839 H   0  0  0  0  0  0  0  0  0  0  0  0
  144.7206  130.7064  150.3459 H   0  0  0  0  0  0  0  0  0  0  0  0
  147.3541  131.9253  149.8397 H   0  0  0  0  0  0  0  0  0  0  0  0
  145.8837  132.2257  148.9117 H   0  0  0  0  0  0  0  0  0  0  0  0
  146.8397  134.2576  150.3819 H   0  0  0  0  0  0  0  0  0  0  0  0
  144.3088  133.7824  149.5346 H   0  0  0  0  0  0  0  0  0  0  0  0
  143.3592  135.6703  151.0461 H   0  0  0  0  0  0  0  0  0  0  0  0
  144.9487  135.7298  151.7854 H   0  0  0  0  0  0  0  0  0  0  0  0
  144.6452  137.1536  149.9951 H   0  0  0  0  0  0  0  0  0  0  0  0
  143.1601  132.4072  151.0511 H   0  0  0  0  0  0  0  0  0  0  0  0
  143.5077  133.5157  152.3742 H   0  0  0  0  0  0  0  0  0  0  0  0
  144.4193  136.0808  154.6696 H   0  0  0  0  0  0  0  0  0  0  0  0
  150.5335  136.5497  153.9747 H   0  0  0  0  0  0  0  0  0  0  0  0
  149.1400  138.2985  153.2561 H   0  0  0  0  0  0  0  0  0  0  0  0
  148.3550  137.9952  154.7885 H   0  0  0  0  0  0  0  0  0  0  0  0
  149.3897  140.4616  154.1151 H   0  0  0  0  0  0  0  0  0  0  0  0
  149.3833  139.9041  155.7907 H   0  0  0  0  0  0  0  0  0  0  0  0
  152.6007  138.1337  154.6750 H   0  0  0  0  0  0  0  0  0  0  0  0
  151.6945  138.4798  153.2242 H   0  0  0  0  0  0  0  0  0  0  0  0
  1  2  1  0  0  0  0
  1 28  1  0  0  0  0
  2  3  1  0  0  0  0
  2 29  1  0  0  0  0
  2 30  1  0  0  0  0
  3  4  1  0  0  0  0
  3 23  1  0  0  0  0
  3 31  1  0  0  0  0
  4  5  1  0  0  0  0
  4 32  1  0  0  0  0
  4 33  1  0  0  0  0
  5 22  1  0  0  0  0
  5  6  1  0  0  0  0
  6  7  2  0  0  0  0
  6 34  1  0  0  0  0
  7  8  1  0  0  0  0
  8 22  2  0  0  0  0
  8  9  1  0  0  0  0
  9 10  1  0  0  0  0
  9 19  2  0  0  0  0
 10 14  1  0  0  0  0
 10 11  1  0  0  0  0
 11 18  1  0  0  0  0
 11 12  1  0  0  0  0
 11 35  1  0  0  0  0
 12 13  1  0  0  0  0
 12 36  1  0  0  0  0
 12 37  1  0  0  0  0
 13 14  1  0  0  0  0
 13 38  1  0  0  0  0
 13 39  1  0  0  0  0
 14 15  1  0  0  0  0
 14 40  1  0  0  0  0
 15 16  1  0  0  0  0
 15 18  1  0  0  0  0
 15 41  1  0  0  0  0
 16 17  1  0  0  0  0
 16 42  1  0  0  0  0
 16 43  1  0  0  0  0
 17 44  1  0  0  0  0
 18 45  1  0  0  0  0
 18 46  1  0  0  0  0
 19 20  1  0  0  0  0
 20 21  2  0  0  0  0
 20 47  1  0  0  0  0
 21 22  1  0  0  0  0
 23 27  1  0  0  0  0
 23 24  1  0  0  0  0
 23 48  1  0  0  0  0
 24 25  1  0  0  0  0
 24 49  1  0  0  0  0
 24 50  1  0  0  0  0
 25 26  1  0  0  0  0
 25 51  1  0  0  0  0
 25 52  1  0  0  0  0
 26 27  1  0  0  0  0
 27 53  1  0  0  0  0
 27 54  1  0  0  0  0
M  END
> <s_m_source_file>
AV-unprocessed.smi

> <i_m_source_file_index>
227

> <i_lp_mmshare_version>
43012

> <i_f3d_flags>
0

> <s_epik_input>
W0NIMl0xT1tDSDJdW0NIMl1bQ0BIXTFbQ0BIXShbQ0gyXVtPSF0pW0NIMl1uKFtjSF1uMiljKGMyMyluW2NIXW5jM04oW0NASF00NSlbQ0BASF0oW0NIMl1bQ0gyXTQpW0NASF0oW0NIMl01KVtDSDJdW09IXQ==

> <s_epik_cmdline>
J2VwaWtfcHl0aG9uJywgJy1waCcsICc3LjAnLCAnLXRuJywgJzgnLCAnLW1hJywgJzIwMCcsICctbWV0YWxfYmluZGluZycsICctaW1hZScsICc8aW5maWxlLm1hZT4nLCAnLW9tYWUnLCAnPG91dGZpbGUubWFlPic=

> <r_lp_tautomer_probability>
1

> <r_epik_Ionization_Penalty>
0.0055791

> <r_epik_Ionization_Penalty_Charging>
0

> <r_epik_Ionization_Penalty_Neutral>
0.0055791

> <r_epik_State_Penalty>
0.00401299

> <r_epik_Charging_Adjusted_Penalty>
0.00401299

> <i_epik_Tot_Q>
0

> <i_epik_Tot_abs_Q>
0

> <r_epik_Metal_State_Penalty>
-0

> <b_epik_Metal_Only>
0

> <s_lp_Force_Field>
OPLS_2005

> <r_lp_Energy>
89.9209

> <b_lp_Chiralities_Consistent>
1

> <s_lp_Variant>
AV-unprocessed.smi:227-13

> <Gold.Version>
5.8.1

> <Gold.Id.Protein>
6NUR|6NUR_protein|mol2

> <Gold.PLP.Fitness>
42.9920

> <Gold.PLP.PLP>
-38.5080

> <Gold.PLP.part.hbond>
-4.0000

> <Gold.PLP.part.metal>
0.0000

> <Gold.PLP.part.buried>
-4.5804

> <Gold.PLP.part.nonpolar>
-30.4688

> <Gold.PLP.part.repulsive>
0.4598

> <Gold.PLP.ligand.clash>
0.0000

> <Gold.PLP.ligand.torsion>
0.8766

> <Gold.PLP.Chemscore.Hbond>
2.0023

> <Gold.PLP.Chemscore.CHOScore>
0.0000

> <Gold.PLP.Chemscore.Metal>
0.0000

> <Gold.Chemscore.Hbonds>
donor molecule, donor type, donor heavy atom, donor atom, acceptor molecule, acceptor atom, score
      L1  H    17    44       P1 10171  1.00
      P1  H  7989  7998       L1    26  1.00

> <Gold.PLP.Chemscore.Internal.Correction>
0.2303

> <Gold.Rescore>
     Score         DG    S(hbond)    S(metal)    S(lipo)     H(rot)  DE(clash)    DE(int)     intcor
      5.75     -11.50       1.25        0.00      94.78       3.61       1.29       4.46       ----

> <Gold.Chemscore.Fitness>
5.7506

> <Gold.Chemscore.DG>
-11.5025

> <Gold.Chemscore.ZeroCoef>
-5.4800

> <Gold.Chemscore.Hbond>
1.2479

> <Gold.Chemscore.Metal>
0.0000

> <Gold.Chemscore.Lipo>
94.7759

> <Gold.Chemscore.Internal_Hbond>
0.0000

> <Gold.Chemscore.DEClash>
1.2947

> <Gold.Chemscore.DEInternal>
4.4571

> <Gold.Chemscore.Rot>
3.6071

> <Gold.Chemscore.Internal.Correction>
   9.000000E+99

> <Gold.Chemscore.Hbonds>
donor molecule, donor type, donor heavy atom, donor atom, acceptor molecule, acceptor atom, score
      L1  H    17    44       P1 10171  0.98
      P1  H  7989  7998       L1    26  0.18

> <Gold.Chemscore.Hbond.Weighted>
-4.1679

> <Gold.Chemscore.Metal.Weighted>
-0.0000

> <Gold.Chemscore.Lipo.Weighted>
-11.0888

> <Gold.Chemscore.Internal_Hbond.Weighted>
0.0000

> <Gold.Chemscore.DEClash.Weighted>
1.2947

> <Gold.Chemscore.DEInternal.Weighted>
4.4571

> <Gold.Chemscore.Rot.Weighted>
9.2342

> <Gold.Chemscore.Internal.Correction.Weighted>
   9.000000E+99

> <Gold.Protein.RotatedTorsions>
[ 6907 6896 6895 6894 ] final  165.87 input  -60.11 | X-H torsion
[ 7974 7965 7964 7962 ] final   91.21 input  175.53 | X-H torsion
[ 8008 7997 7996 7995 ] final -122.20 input   59.86 | X-H torsion
[ 10167 10162 10161 10158 ] final -138.32 input  -65.29 | X-H torsion
[ 10718 10713 10712 10709 ] final   82.14 input   66.30 | X-H torsion
[ 10763 10752 10751 10750 ] final    3.46 input  -60.55 | X-H torsion
[ 11005 11000 10999 10996 ] final   78.65 input  -57.11 | X-H torsion

> <Gold.Protein.ActiveResidues>
 VAL166  LYS551  ARG553  GLY616  TRP617  ASP618  TYR619  PRO620  LYS621  CYS622 
 ASP623  PHE694  ASN695  SER759  ASP760  ASP761  ALA762  ILE779  LEU786  VAL792 
 PHE793  MET794  SER795  GLU796  ALA797  LYS798  CYS799  TRP800  GLU811  SER814 

> <Gold.Protein.RotatedAtoms>
  151.8877  133.3509  159.3787 H   0  0  0  0  0  0  0  0  0  0  0  0  # atno 6907 bound_to 6896
  150.7111  134.4955  159.5545 H   0  0  0  0  0  0  0  0  0  0  0  0  # atno 6908 bound_to 6896
  152.2519  134.8124  160.0495 H   0  0  0  0  0  0  0  0  0  0  0  0  # atno 6909 bound_to 6896
  145.5087  139.2276  143.2737 H   0  0  0  0  0  0  0  0  0  0  0  0  # atno 7974 bound_to 7965
  155.1604  140.0406  157.2841 H   0  0  0  0  0  0  0  0  0  0  0  0  # atno 8008 bound_to 7997
  154.6340  140.2531  155.7373 H   0  0  0  0  0  0  0  0  0  0  0  0  # atno 8009 bound_to 7997
  156.2499  140.2869  156.0704 H   0  0  0  0  0  0  0  0  0  0  0  0  # atno 8010 bound_to 7997
  139.8489  143.7224  152.2659 H   0  0  0  0  0  0  0  0  0  0  0  0  # atno 10167 bound_to 10162
  157.6850  131.0035  150.2331 H   0  0  0  0  0  0  0  0  0  0  0  0  # atno 10718 bound_to 10713
  153.2831  135.6942  153.7366 H   0  0  0  0  0  0  0  0  0  0  0  0  # atno 10763 bound_to 10752
  153.6346  135.3404  155.3053 H   0  0  0  0  0  0  0  0  0  0  0  0  # atno 10764 bound_to 10752
  154.8501  135.4417  154.1890 H   0  0  0  0  0  0  0  0  0  0  0  0  # atno 10765 bound_to 10752
  139.9204  134.7780  156.1677 H   0  0  0  0  0  0  0  0  0  0  0  0  # atno 11005 bound_to 11000
  146.2180  140.5892  142.9030 LP  0  0  0  0  0  0  0  0  0  0  0  0  # atno 17320 bound_to 7965
  144.7739  140.5698  143.6651 LP  0  0  0  0  0  0  0  0  0  0  0  0  # atno 17321 bound_to 7965
  139.7485  144.7541  151.0543 LP  0  0  0  0  0  0  0  0  0  0  0  0  # atno 17342 bound_to 10162
  140.7790  143.4888  150.9920 LP  0  0  0  0  0  0  0  0  0  0  0  0  # atno 17343 bound_to 10162
  156.2960  130.3752  149.7796 LP  0  0  0  0  0  0  0  0  0  0  0  0  # atno 17370 bound_to 10713
  156.5441  130.8313  151.3278 LP  0  0  0  0  0  0  0  0  0  0  0  0  # atno 17371 bound_to 10713
  141.0719  133.6793  156.2158 LP  0  0  0  0  0  0  0  0  0  0  0  0  # atno 17394 bound_to 11000
  140.6492  134.5085  157.5576 LP  0  0  0  0  0  0  0  0  0  0  0  0  # atno 17395 bound_to 11000

$$$$
