AV-unprocessed.smi:2894|AV-procd|sdf|11127|dock2
  -GOLD-   2272016 03D 1   1.00000     0.00000
 Structure written by MMmdl.
 35 36  0  0  0  0  0  0  0  0  1 V2000
  154.3601  140.7915  161.1973 C   0  0  0  0  0  0  0  0  0  0  0  0
  153.3924  141.5962  160.3811 C   0  0  0  0  0  0  0  0  0  0  0  0
  152.4238  141.1223  159.4492 C   0  0  0  0  0  0  0  0  0  0  0  0
  151.8351  142.2777  159.0132 C   0  0  0  0  0  0  0  0  0  0  0  0
  150.8356  142.4390  158.1056 N   0  0  0  0  0  0  0  0  0  0  0  0
  150.1565  141.4975  157.4274 C   0  0  0  0  0  0  0  0  0  0  0  0
  150.3320  140.2824  157.5217 O   0  0  0  0  0  0  0  0  0  0  0  0
  149.2415  142.0512  156.6188 N   0  0  0  0  0  0  0  0  0  0  0  0
  148.3494  141.3205  155.7206 C   0  0  1  0  0  0  0  0  0  0  0  0
  147.0585  142.1183  155.4552 C   0  0  0  0  0  0  0  0  0  0  0  0
  146.2280  141.4388  154.3632 C   0  0  0  0  0  0  0  0  0  0  0  0
  147.0475  141.3035  153.0695 C   0  0  0  0  0  0  0  0  0  0  0  0
  148.4061  140.8080  153.2951 N   0  0  0  0  0  0  0  0  0  0  0  0
  149.0876  140.8521  154.4536 C   0  0  0  0  0  0  0  0  0  0  0  0
  150.2619  140.4913  154.5188 O   0  0  0  0  0  0  0  0  0  0  0  0
  152.4257  143.3461  159.6505 N   0  0  0  0  0  0  0  0  0  0  0  0
  152.1496  144.7636  159.5203 C   0  0  0  0  0  0  0  0  0  0  0  0
  153.3885  142.9197  160.4962 N   0  0  0  0  0  0  0  0  0  0  0  0
  154.2837  139.7292  160.9648 H   0  0  0  0  0  0  0  0  0  0  0  0
  154.1686  140.9121  162.2638 H   0  0  0  0  0  0  0  0  0  0  0  0
  155.3879  141.0997  161.0049 H   0  0  0  0  0  0  0  0  0  0  0  0
  152.2146  140.1025  159.1637 H   0  0  0  0  0  0  0  0  0  0  0  0
  150.5717  143.3958  157.9229 H   0  0  0  0  0  0  0  0  0  0  0  0
  149.1699  143.0580  156.6007 H   0  0  0  0  0  0  0  0  0  0  0  0
  148.0600  140.3927  156.2180 H   0  0  0  0  0  0  0  0  0  0  0  0
  146.4702  142.2031  156.3695 H   0  0  0  0  0  0  0  0  0  0  0  0
  147.3032  143.1358  155.1462 H   0  0  0  0  0  0  0  0  0  0  0  0
  145.9180  140.4508  154.7062 H   0  0  0  0  0  0  0  0  0  0  0  0
  145.3142  142.0024  154.1727 H   0  0  0  0  0  0  0  0  0  0  0  0
  146.5376  140.6433  152.3677 H   0  0  0  0  0  0  0  0  0  0  0  0
  147.1262  142.2764  152.5833 H   0  0  0  0  0  0  0  0  0  0  0  0
  148.8961  140.4584  152.4842 H   0  0  0  0  0  0  0  0  0  0  0  0
  151.0866  144.9464  159.6788 H   0  0  0  0  0  0  0  0  0  0  0  0
  152.4242  145.0984  158.5197 H   0  0  0  0  0  0  0  0  0  0  0  0
  152.7190  145.3353  160.2544 H   0  0  0  0  0  0  0  0  0  0  0  0
  1  2  1  0  0  0  0
  1 19  1  0  0  0  0
  1 20  1  0  0  0  0
  1 21  1  0  0  0  0
  2 18  2  0  0  0  0
  2  3  1  0  0  0  0
  3  4  2  0  0  0  0
  3 22  1  0  0  0  0
  4  5  1  0  0  0  0
  4 16  1  0  0  0  0
  5  6  1  0  0  0  0
  5 23  1  0  0  0  0
  6  7  2  0  0  0  0
  6  8  1  0  0  0  0
  8  9  1  0  0  0  0
  8 24  1  0  0  0  0
  9 14  1  0  0  0  0
  9 10  1  0  0  0  0
  9 25  1  0  0  0  0
 10 11  1  0  0  0  0
 10 26  1  0  0  0  0
 10 27  1  0  0  0  0
 11 12  1  0  0  0  0
 11 28  1  0  0  0  0
 11 29  1  0  0  0  0
 12 13  1  0  0  0  0
 12 30  1  0  0  0  0
 12 31  1  0  0  0  0
 13 14  1  0  0  0  0
 13 32  1  0  0  0  0
 14 15  2  0  0  0  0
 16 17  1  0  0  0  0
 16 18  1  0  0  0  0
 17 33  1  0  0  0  0
 17 34  1  0  0  0  0
 17 35  1  0  0  0  0
M  END
> <s_m_source_file>
AV-unprocessed.smi

> <i_m_source_file_index>
2894

> <i_lp_mmshare_version>
43012

> <i_f3d_flags>
0

> <s_epik_input>
W0NIM11jMVtjSF1jKG4objEpW0NIM10pW05IXUMoPU8pW05IXVtDQEBIXTJbQ0gyXVtDSDJdW0NIMl1bTkhdQzI9Tw==

> <s_epik_cmdline>
J2VwaWtfcHl0aG9uJywgJy1waCcsICc3LjAnLCAnLXRuJywgJzgnLCAnLW1hJywgJzIwMCcsICctbWV0YWxfYmluZGluZycsICctaW1hZScsICc8aW5maWxlLm1hZT4nLCAnLW9tYWUnLCAnPG91dGZpbGUubWFlPic=

> <r_lp_tautomer_probability>
1

> <r_epik_Ionization_Penalty>
8.17286e-05

> <r_epik_Ionization_Penalty_Charging>
0

> <r_epik_Ionization_Penalty_Neutral>
8.17286e-05

> <r_epik_State_Penalty>
-0

> <r_epik_Charging_Adjusted_Penalty>
0

> <i_epik_Tot_Q>
0

> <i_epik_Tot_abs_Q>
0

> <r_epik_Metal_State_Penalty>
-0

> <b_epik_Metal_Only>
0

> <s_lp_Force_Field>
OPLS_2005

> <r_lp_Energy>
10.37

> <b_lp_Chiralities_Consistent>
1

> <s_lp_Variant>
AV-unprocessed.smi:2894-2

> <Gold.Version>
5.8.1

> <Gold.Id.Protein>
6NUR|6NUR_protein|mol2

> <Gold.PLP.Fitness>
43.9241

> <Gold.PLP.PLP>
-35.4731

> <Gold.PLP.part.hbond>
-2.9839

> <Gold.PLP.part.metal>
0.0000

> <Gold.PLP.part.buried>
-5.7258

> <Gold.PLP.part.nonpolar>
-27.3825

> <Gold.PLP.part.repulsive>
0.3286

> <Gold.PLP.ligand.clash>
0.0000

> <Gold.PLP.ligand.torsion>
0.2956

> <Gold.PLP.Chemscore.Hbond>
3.0000

> <Gold.PLP.Chemscore.CHOScore>
0.0000

> <Gold.PLP.Chemscore.Metal>
0.0000

> <Gold.Chemscore.Hbonds>
donor molecule, donor type, donor heavy atom, donor atom, acceptor molecule, acceptor atom, score
      L1  H     8    24       P1  8028  1.00
      L1  H    13    32       P1  7957  1.00
      P1  H  7989  7998       L1    15  0.94

> <Gold.PLP.Chemscore.Internal.Correction>
0.0423

> <Gold.Rescore>
     Score         DG    S(hbond)    S(metal)    S(lipo)     H(rot)  DE(clash)    DE(int)     intcor
     18.64     -20.24       2.94        0.00      64.20       1.00       0.10       1.49       ----

> <Gold.Chemscore.Fitness>
18.6447

> <Gold.Chemscore.DG>
-20.2419

> <Gold.Chemscore.ZeroCoef>
-5.4800

> <Gold.Chemscore.Hbond>
2.9373

> <Gold.Chemscore.Metal>
0.0000

> <Gold.Chemscore.Lipo>
64.1980

> <Gold.Chemscore.Internal_Hbond>
0.0000

> <Gold.Chemscore.DEClash>
0.1045

> <Gold.Chemscore.DEInternal>
1.4926

> <Gold.Chemscore.Rot>
1.0000

> <Gold.Chemscore.Internal.Correction>
   9.000000E+99

> <Gold.Chemscore.Hbonds>
donor molecule, donor type, donor heavy atom, donor atom, acceptor molecule, acceptor atom, score
      L1  H     8    24       P1  8028  0.95
      L1  H    13    32       P1  7957  0.96
      P1  H  7989  7998       L1    15  0.91

> <Gold.Chemscore.Hbond.Weighted>
-9.8107

> <Gold.Chemscore.Metal.Weighted>
-0.0000

> <Gold.Chemscore.Lipo.Weighted>
-7.5112

> <Gold.Chemscore.Internal_Hbond.Weighted>
0.0000

> <Gold.Chemscore.DEClash.Weighted>
0.1045

> <Gold.Chemscore.DEInternal.Weighted>
1.4926

> <Gold.Chemscore.Rot.Weighted>
2.5600

> <Gold.Chemscore.Internal.Correction.Weighted>
   9.000000E+99

> <Gold.Protein.RotatedTorsions>
[ 6907 6896 6895 6894 ] final  -56.08 input  -60.11 | X-H torsion
[ 7974 7965 7964 7962 ] final   74.72 input  175.53 | X-H torsion
[ 8008 7997 7996 7995 ] final  -65.97 input   59.86 | X-H torsion
[ 10167 10162 10161 10158 ] final   82.99 input  -65.29 | X-H torsion
[ 10718 10713 10712 10709 ] final   94.96 input   66.30 | X-H torsion
[ 10763 10752 10751 10750 ] final  131.55 input  -60.55 | X-H torsion
[ 11005 11000 10999 10996 ] final   18.58 input  -57.11 | X-H torsion

> <Gold.Protein.ActiveResidues>
 VAL166  LYS551  ARG553  GLY616  TRP617  ASP618  TYR619  PRO620  LYS621  CYS622 
 ASP623  PHE694  ASN695  SER759  ASP760  ASP761  ALA762  ILE779  LEU786  VAL792 
 PHE793  MET794  SER795  GLU796  ALA797  LYS798  CYS799  TRP800  GLU811  SER814 

> <Gold.Protein.RotatedAtoms>
  150.8198  134.7399  159.6761 H   0  0  0  0  0  0  0  0  0  0  0  0  # atno 6907 bound_to 6896
  152.4314  134.5767  159.9946 H   0  0  0  0  0  0  0  0  0  0  0  0  # atno 6908 bound_to 6896
  151.5954  133.3324  159.3072 H   0  0  0  0  0  0  0  0  0  0  0  0  # atno 6909 bound_to 6896
  145.7246  139.2661  143.1576 H   0  0  0  0  0  0  0  0  0  0  0  0  # atno 7974 bound_to 7965
  154.4705  140.0922  156.7131 H   0  0  0  0  0  0  0  0  0  0  0  0  # atno 8008 bound_to 7997
  155.4738  140.3465  155.4311 H   0  0  0  0  0  0  0  0  0  0  0  0  # atno 8009 bound_to 7997
  156.1030  140.1427  156.9430 H   0  0  0  0  0  0  0  0  0  0  0  0  # atno 8010 bound_to 7997
  139.9230  144.6200  150.8420 H   0  0  0  0  0  0  0  0  0  0  0  0  # atno 10167 bound_to 10162
  157.6943  131.0530  150.4266 H   0  0  0  0  0  0  0  0  0  0  0  0  # atno 10718 bound_to 10713
  153.7762  135.3175  155.3359 H   0  0  0  0  0  0  0  0  0  0  0  0  # atno 10763 bound_to 10752
  154.8178  135.4624  154.0696 H   0  0  0  0  0  0  0  0  0  0  0  0  # atno 10764 bound_to 10752
  153.1971  135.6917  153.8363 H   0  0  0  0  0  0  0  0  0  0  0  0  # atno 10765 bound_to 10752
  140.4232  134.1497  155.7674 H   0  0  0  0  0  0  0  0  0  0  0  0  # atno 11005 bound_to 11000
  146.0594  140.7987  142.9742 LP  0  0  0  0  0  0  0  0  0  0  0  0  # atno 17320 bound_to 7965
  144.6908  140.3173  143.7238 LP  0  0  0  0  0  0  0  0  0  0  0  0  # atno 17321 bound_to 7965
  140.7657  143.3283  151.2466 LP  0  0  0  0  0  0  0  0  0  0  0  0  # atno 17342 bound_to 10162
  139.6845  143.9797  152.2827 LP  0  0  0  0  0  0  0  0  0  0  0  0  # atno 17343 bound_to 10162
  156.4636  130.4037  149.6561 LP  0  0  0  0  0  0  0  0  0  0  0  0  # atno 17370 bound_to 10713
  156.3667  130.7509  151.2488 LP  0  0  0  0  0  0  0  0  0  0  0  0  # atno 17371 bound_to 10713
  141.1776  133.8482  157.1370 LP  0  0  0  0  0  0  0  0  0  0  0  0  # atno 17394 bound_to 11000
  140.0186  134.9956  157.0544 LP  0  0  0  0  0  0  0  0  0  0  0  0  # atno 17395 bound_to 11000

$$$$
