AV-unprocessed.smi:1305|AV-procd|sdf|5433|dock4
  -GOLD-   22720 4593D 1   1.00000     0.00000
 Structure written by MMmdl.
 32 33  0  0  0  0  0  0  0  0  1 V2000
  151.7953  144.0708  161.0956 C   0  0  0  0  0  0  0  0  0  0  0  0
  151.8662  145.1124  159.9739 C   0  0  0  0  0  0  0  0  0  0  0  0
  152.5922  144.5875  158.7293 C   0  0  0  0  0  0  0  0  0  0  0  0
  151.4170  143.9687  157.4894 S   0  0  0  0  0  0  0  0  0  0  0  0
  151.4605  142.2357  157.8485 C   0  0  0  0  0  0  0  0  0  0  0  0
  152.2662  141.6699  158.7528 N   0  0  0  0  0  0  0  0  0  0  0  0
  151.9961  140.3218  158.7041 N   0  0  0  0  0  0  0  0  0  0  0  0
  151.0354  140.1871  157.7882 C   0  0  0  0  0  0  0  0  0  0  0  0
  150.4609  138.8657  157.3847 C   0  0  0  0  0  0  0  0  0  0  0  0
  149.5476  138.0966  158.3134 C   0  0  0  0  0  0  0  0  0  0  0  0
  150.9296  137.5750  158.0217 C   0  0  0  0  0  0  0  0  0  0  0  0
  150.6678  141.3488  157.2080 N   0  0  0  0  0  0  0  0  0  0  0  0
  149.6808  141.5791  156.1582 C   0  0  0  0  0  0  0  0  0  0  0  0
  150.0828  140.9225  154.8344 C   0  0  0  0  0  0  0  0  0  0  0  0
  149.2522  141.0614  153.7976 N   0  0  0  0  0  0  0  0  0  0  0  0
  151.1416  140.3053  154.7453 O   0  0  0  0  0  0  0  0  0  0  0  0
  151.2773  144.4724  161.9667 H   0  0  0  0  0  0  0  0  0  0  0  0
  152.7926  143.7656  161.4131 H   0  0  0  0  0  0  0  0  0  0  0  0
  151.2589  143.1789  160.7712 H   0  0  0  0  0  0  0  0  0  0  0  0
  150.8552  145.4199  159.7051 H   0  0  0  0  0  0  0  0  0  0  0  0
  152.3731  146.0045  160.3432 H   0  0  0  0  0  0  0  0  0  0  0  0
  153.1921  145.3834  158.2866 H   0  0  0  0  0  0  0  0  0  0  0  0
  153.2714  143.7811  159.0078 H   0  0  0  0  0  0  0  0  0  0  0  0
  150.2364  138.8525  156.3200 H   0  0  0  0  0  0  0  0  0  0  0  0
  149.3702  138.5051  159.3061 H   0  0  0  0  0  0  0  0  0  0  0  0
  148.7044  137.5743  157.8661 H   0  0  0  0  0  0  0  0  0  0  0  0
  151.0115  136.7002  157.3803 H   0  0  0  0  0  0  0  0  0  0  0  0
  151.6648  137.6366  158.8215 H   0  0  0  0  0  0  0  0  0  0  0  0
  148.7099  141.2003  156.4778 H   0  0  0  0  0  0  0  0  0  0  0  0
  149.5584  142.6535  156.0158 H   0  0  0  0  0  0  0  0  0  0  0  0
  149.4813  140.6435  152.9071 H   0  0  0  0  0  0  0  0  0  0  0  0
  148.3962  141.5853  153.9084 H   0  0  0  0  0  0  0  0  0  0  0  0
  1  2  1  0  0  0  0
  1 17  1  0  0  0  0
  1 18  1  0  0  0  0
  1 19  1  0  0  0  0
  2  3  1  0  0  0  0
  2 20  1  0  0  0  0
  2 21  1  0  0  0  0
  3  4  1  0  0  0  0
  3 22  1  0  0  0  0
  3 23  1  0  0  0  0
  4  5  1  0  0  0  0
  5 12  1  0  0  0  0
  5  6  2  0  0  0  0
  6  7  1  0  0  0  0
  7  8  2  0  0  0  0
  8  9  1  0  0  0  0
  8 12  1  0  0  0  0
  9 11  1  0  0  0  0
  9 10  1  0  0  0  0
  9 24  1  0  0  0  0
 10 11  1  0  0  0  0
 10 25  1  0  0  0  0
 10 26  1  0  0  0  0
 11 27  1  0  0  0  0
 11 28  1  0  0  0  0
 12 13  1  0  0  0  0
 13 14  1  0  0  0  0
 13 29  1  0  0  0  0
 13 30  1  0  0  0  0
 14 15  1  0  0  0  0
 14 16  2  0  0  0  0
 15 31  1  0  0  0  0
 15 32  1  0  0  0  0
M  END
> <s_m_source_file>
AV-unprocessed.smi

> <i_m_source_file_index>
1305

> <i_lp_mmshare_version>
43012

> <i_f3d_flags>
0

> <s_epik_input>
W0NIM11bQ0gyXVtDSDJdU2Mxbm5jKFtDSF0yW0NIMl1bQ0gyXTIpbjFbQ0gyXUMoPU8pW05IMl0=

> <s_epik_cmdline>
J2VwaWtfcHl0aG9uJywgJy1waCcsICc3LjAnLCAnLXRuJywgJzgnLCAnLW1hJywgJzIwMCcsICctbWV0YWxfYmluZGluZycsICctaW1hZScsICc8aW5maWxlLm1hZT4nLCAnLW9tYWUnLCAnPG91dGZpbGUubWFlPic=

> <r_lp_tautomer_probability>
1

> <r_epik_Ionization_Penalty>
4.21319e-06

> <r_epik_Ionization_Penalty_Charging>
0

> <r_epik_Ionization_Penalty_Neutral>
4.21319e-06

> <r_epik_State_Penalty>
-0

> <r_epik_Charging_Adjusted_Penalty>
0

> <i_epik_Tot_Q>
0

> <i_epik_Tot_abs_Q>
0

> <r_epik_Metal_State_Penalty>
-0

> <b_epik_Metal_Only>
0

> <s_lp_Force_Field>
OPLS_2005

> <r_lp_Energy>
5.08374

> <b_lp_Chiralities_Consistent>
1

> <s_lp_Variant>
AV-unprocessed.smi:1305-1

> <Gold.Version>
5.8.1

> <Gold.Id.Protein>
6NUR|6NUR_protein|mol2

> <Gold.PLP.Fitness>
38.1582

> <Gold.PLP.PLP>
-33.2925

> <Gold.PLP.part.hbond>
-2.0000

> <Gold.PLP.part.metal>
0.0000

> <Gold.PLP.part.buried>
-3.8598

> <Gold.PLP.part.nonpolar>
-27.9603

> <Gold.PLP.part.repulsive>
0.2438

> <Gold.PLP.ligand.clash>
0.0000

> <Gold.PLP.ligand.torsion>
0.6555

> <Gold.PLP.Chemscore.Hbond>
2.0000

> <Gold.PLP.Chemscore.CHOScore>
0.0000

> <Gold.PLP.Chemscore.Metal>
0.0000

> <Gold.Chemscore.Hbonds>
donor molecule, donor type, donor heavy atom, donor atom, acceptor molecule, acceptor atom, score
      L1  H    15    31       P1  7957  1.00
      P1  H  7989  7998       L1    16  0.77

> <Gold.PLP.Chemscore.Internal.Correction>
0.1767

> <Gold.Rescore>
     Score         DG    S(hbond)    S(metal)    S(lipo)     H(rot)  DE(clash)    DE(int)     intcor
     11.70     -12.64       1.81        0.00      65.77       2.57       0.30       0.64       ----

> <Gold.Chemscore.Fitness>
11.7040

> <Gold.Chemscore.DG>
-12.6418

> <Gold.Chemscore.ZeroCoef>
-5.4800

> <Gold.Chemscore.Hbond>
1.8096

> <Gold.Chemscore.Metal>
0.0000

> <Gold.Chemscore.Lipo>
65.7659

> <Gold.Chemscore.Internal_Hbond>
0.0000

> <Gold.Chemscore.DEClash>
0.3006

> <Gold.Chemscore.DEInternal>
0.6372

> <Gold.Chemscore.Rot>
2.5691

> <Gold.Chemscore.Internal.Correction>
   9.000000E+99

> <Gold.Chemscore.Hbonds>
donor molecule, donor type, donor heavy atom, donor atom, acceptor molecule, acceptor atom, score
      L1  H    15    31       P1  7957  1.00
      P1  H  7989  7998       L1    16  0.17

> <Gold.Chemscore.Hbond.Weighted>
-6.0442

> <Gold.Chemscore.Metal.Weighted>
-0.0000

> <Gold.Chemscore.Lipo.Weighted>
-7.6946

> <Gold.Chemscore.Internal_Hbond.Weighted>
0.0000

> <Gold.Chemscore.DEClash.Weighted>
0.3006

> <Gold.Chemscore.DEInternal.Weighted>
0.6372

> <Gold.Chemscore.Rot.Weighted>
6.5770

> <Gold.Chemscore.Internal.Correction.Weighted>
   9.000000E+99

> <Gold.Protein.RotatedTorsions>
[ 6907 6896 6895 6894 ] final  -39.79 input  -60.11 | X-H torsion
[ 7974 7965 7964 7962 ] final    6.93 input  175.53 | X-H torsion
[ 8008 7997 7996 7995 ] final -114.29 input   59.86 | X-H torsion
[ 10167 10162 10161 10158 ] final  -28.59 input  -65.29 | X-H torsion
[ 10718 10713 10712 10709 ] final  -48.78 input   66.30 | X-H torsion
[ 10763 10752 10751 10750 ] final  -46.67 input  -60.55 | X-H torsion
[ 11005 11000 10999 10996 ] final -118.77 input  -57.11 | X-H torsion

> <Gold.Protein.ActiveResidues>
 VAL166  LYS551  ARG553  GLY616  TRP617  ASP618  TYR619  PRO620  LYS621  CYS622 
 ASP623  PHE694  ASN695  SER759  ASP760  ASP761  ALA762  ILE779  LEU786  VAL792 
 PHE793  MET794  SER795  GLU796  ALA797  LYS798  CYS799  TRP800  GLU811  SER814 

> <Gold.Protein.RotatedAtoms>
  150.9861  134.9206  159.7872 H   0  0  0  0  0  0  0  0  0  0  0  0  # atno 6907 bound_to 6896
  152.5237  134.3344  159.9204 H   0  0  0  0  0  0  0  0  0  0  0  0  # atno 6908 bound_to 6896
  151.3351  133.3944  159.2700 H   0  0  0  0  0  0  0  0  0  0  0  0  # atno 6909 bound_to 6896
  146.2431  140.0159  142.8402 H   0  0  0  0  0  0  0  0  0  0  0  0  # atno 7974 bound_to 7965
  155.0340  140.0393  157.2485 H   0  0  0  0  0  0  0  0  0  0  0  0  # atno 8008 bound_to 7997
  154.7272  140.2723  155.6464 H   0  0  0  0  0  0  0  0  0  0  0  0  # atno 8009 bound_to 7997
  156.2832  140.2691  156.1961 H   0  0  0  0  0  0  0  0  0  0  0  0  # atno 8010 bound_to 7997
  140.7268  143.3998  151.1285 H   0  0  0  0  0  0  0  0  0  0  0  0  # atno 10167 bound_to 10162
  156.1955  130.4154  149.9312 H   0  0  0  0  0  0  0  0  0  0  0  0  # atno 10718 bound_to 10713
  154.0488  135.6634  153.4798 H   0  0  0  0  0  0  0  0  0  0  0  0  # atno 10763 bound_to 10752
  153.0472  135.5107  154.7771 H   0  0  0  0  0  0  0  0  0  0  0  0  # atno 10764 bound_to 10752
  154.6771  135.3039  154.9630 H   0  0  0  0  0  0  0  0  0  0  0  0  # atno 10765 bound_to 10752
  141.0262  134.0049  157.3210 H   0  0  0  0  0  0  0  0  0  0  0  0  # atno 11005 bound_to 11000
  145.1285  140.9504  143.4558 LP  0  0  0  0  0  0  0  0  0  0  0  0  # atno 17320 bound_to 7965
  145.0411  139.3259  143.5976 LP  0  0  0  0  0  0  0  0  0  0  0  0  # atno 17321 bound_to 7965
  139.7616  143.8627  152.3101 LP  0  0  0  0  0  0  0  0  0  0  0  0  # atno 17342 bound_to 10162
  139.8515  144.7162  150.9208 LP  0  0  0  0  0  0  0  0  0  0  0  0  # atno 17343 bound_to 10162
  156.7039  130.8944  151.3602 LP  0  0  0  0  0  0  0  0  0  0  0  0  # atno 17370 bound_to 10713
  157.6955  130.9277  150.0632 LP  0  0  0  0  0  0  0  0  0  0  0  0  # atno 17371 bound_to 10713
  139.9178  135.0198  156.7947 LP  0  0  0  0  0  0  0  0  0  0  0  0  # atno 17394 bound_to 11000
  140.6486  133.9752  155.7744 LP  0  0  0  0  0  0  0  0  0  0  0  0  # atno 17395 bound_to 11000

$$$$
