AV-unprocessed.smi:101|AV-procd|sdf|933|dock5
  -GOLD-   2262017453D 1   1.00000     0.00000
 Structure written by MMmdl.
 43 45  0  0  0  0  0  0  0  0  2 V2000
  145.2304  136.7761  158.7505 C   0  0  0  0  0  0  0  0  0  0  0  0
  146.7402  136.7876  158.9157 C   0  0  0  0  0  0  0  0  0  0  0  0
  147.5823  136.7572  157.8587 C   0  0  0  0  0  0  0  0  0  0  0  0
  148.9601  136.7626  158.0120 N   0  0  0  0  0  0  0  0  0  0  0  0
  149.9065  136.7520  156.8208 C   0  0  2  0  0  0  0  0  0  0  0  0
  150.7040  137.8983  156.8274 O   0  0  0  0  0  0  0  0  0  0  0  0
  150.1080  138.8987  156.0134 C   0  0  1  0  0  0  0  0  0  0  0  0
  151.1728  139.9218  155.5990 C   0  0  0  0  0  0  0  0  0  0  0  0
  151.1628  141.0081  156.5109 O   0  0  0  0  0  0  0  0  0  0  0  0
  151.9460  140.9815  157.6060 C   0  0  0  0  0  0  0  0  0  0  0  0
  152.6165  140.0032  157.9422 O   0  0  0  0  0  0  0  0  0  0  0  0
  151.9154  142.2620  158.3703 C   0  0  0  0  0  0  0  0  0  0  0  0
  151.3011  143.3987  157.7946 C   0  0  0  0  0  0  0  0  0  0  0  0
  151.2604  144.6221  158.4914 C   0  0  0  0  0  0  0  0  0  0  0  0
  151.8335  144.7240  159.7723 C   0  0  0  0  0  0  0  0  0  0  0  0
  152.4461  143.6002  160.3566 C   0  0  0  0  0  0  0  0  0  0  0  0
  152.4872  142.3754  159.6620 C   0  0  0  0  0  0  0  0  0  0  0  0
  149.5130  138.1014  154.8511 C   0  0  2  0  0  0  0  0  0  0  0  0
  148.3666  138.7561  154.3446 O   0  0  0  0  0  0  0  0  0  0  0  0
  149.1309  136.7629  155.4831 C   0  0  1  0  0  0  0  0  0  0  0  0
  149.5335  135.7007  154.6423 O   0  0  0  0  0  0  0  0  0  0  0  0
  149.5113  136.8642  159.3177 C   0  0  0  0  0  0  0  0  0  0  0  0
  150.7359  136.9317  159.4237 O   0  0  0  0  0  0  0  0  0  0  0  0
  148.6703  136.8857  160.3902 N   0  5  0  0  0  0  0  0  0  0  0  0
  147.3136  136.8404  160.2653 C   0  0  0  0  0  0  0  0  0  0  0  0
  146.5659  136.8466  161.2428 O   0  0  0  0  0  0  0  0  0  0  0  0
  144.9459  136.7526  157.6981 H   0  0  0  0  0  0  0  0  0  0  0  0
  144.7906  137.6672  159.1994 H   0  0  0  0  0  0  0  0  0  0  0  0
  144.8026  135.8984  159.2357 H   0  0  0  0  0  0  0  0  0  0  0  0
  147.1488  136.7359  156.8714 H   0  0  0  0  0  0  0  0  0  0  0  0
  150.5306  135.8698  156.9747 H   0  0  0  0  0  0  0  0  0  0  0  0
  149.3173  139.3876  156.5846 H   0  0  0  0  0  0  0  0  0  0  0  0
  152.1599  139.4583  155.6111 H   0  0  0  0  0  0  0  0  0  0  0  0
  150.9867  140.2694  154.5817 H   0  0  0  0  0  0  0  0  0  0  0  0
  150.8553  143.3451  156.8118 H   0  0  0  0  0  0  0  0  0  0  0  0
  150.7889  145.4834  158.0415 H   0  0  0  0  0  0  0  0  0  0  0  0
  151.8030  145.6627  160.3056 H   0  0  0  0  0  0  0  0  0  0  0  0
  152.8857  143.6767  161.3402 H   0  0  0  0  0  0  0  0  0  0  0  0
  152.9646  141.5324  160.1400 H   0  0  0  0  0  0  0  0  0  0  0  0
  150.2545  137.9690  154.0613 H   0  0  0  0  0  0  0  0  0  0  0  0
  148.6255  139.6098  154.0327 H   0  0  0  0  0  0  0  0  0  0  0  0
  148.0573  136.6971  155.6676 H   0  0  0  0  0  0  0  0  0  0  0  0
  149.5670  136.0193  153.7535 H   0  0  0  0  0  0  0  0  0  0  0  0
  1  2  1  0  0  0  0
  1 27  1  0  0  0  0
  1 28  1  0  0  0  0
  1 29  1  0  0  0  0
  2 25  1  0  0  0  0
  2  3  2  0  0  0  0
  3  4  1  0  0  0  0
  3 30  1  0  0  0  0
  4  5  1  0  0  0  0
  4 22  1  0  0  0  0
  5 20  1  0  0  0  0
  5  6  1  0  0  0  0
  5 31  1  0  0  0  0
  6  7  1  0  0  0  0
  7  8  1  0  0  0  0
  7 18  1  0  0  0  0
  7 32  1  0  0  0  0
  8  9  1  0  0  0  0
  8 33  1  0  0  0  0
  8 34  1  0  0  0  0
  9 10  1  0  0  0  0
 10 11  2  0  0  0  0
 10 12  1  0  0  0  0
 12 17  1  0  0  0  0
 12 13  2  0  0  0  0
 13 14  1  0  0  0  0
 13 35  1  0  0  0  0
 14 15  2  0  0  0  0
 14 36  1  0  0  0  0
 15 16  1  0  0  0  0
 15 37  1  0  0  0  0
 16 17  2  0  0  0  0
 16 38  1  0  0  0  0
 17 39  1  0  0  0  0
 18 19  1  0  0  0  0
 18 20  1  0  0  0  0
 18 40  1  0  0  0  0
 19 41  1  0  0  0  0
 20 21  1  0  0  0  0
 20 42  1  0  0  0  0
 21 43  1  0  0  0  0
 22 23  2  0  0  0  0
 22 24  1  0  0  0  0
 24 25  1  0  0  0  0
 25 26  2  0  0  0  0
M  CHG  1  24  -1
M  END
> <s_m_source_file>
AV-unprocessed.smi

> <i_m_source_file_index>
101

> <i_lp_mmshare_version>
43012

> <i_f3d_flags>
0

> <s_epik_input>
Tz1jMVtuSF1jKD1PKW4oW2NIXWMxW0NIM10pW0NAQEhdMk9bQ0BIXShbQ0BASF0oW09IXSlbQ0BIXTJbT0hdKVtDSDJdT0MoPU8pYzNbY0hdW2NIXVtjSF1bY0hdW2NIXTM=

> <s_epik_cmdline>
J2VwaWtfcHl0aG9uJywgJy1waCcsICc3LjAnLCAnLXRuJywgJzgnLCAnLW1hJywgJzIwMCcsICctbWV0YWxfYmluZGluZycsICctaW1hZScsICc8aW5maWxlLm1hZT4nLCAnLW9tYWUnLCAnPG91dGZpbGUubWFlPic=

> <r_lp_tautomer_probability>
0.999537

> <r_epik_Ionization_Penalty>
3.21006

> <r_epik_Ionization_Penalty_Charging>
5.75142e-08

> <r_epik_Ionization_Penalty_Neutral>
3.21006

> <r_epik_State_Penalty>
3.20925

> <r_epik_Charging_Adjusted_Penalty>
3.20925

> <i_epik_Tot_Q>
-1

> <i_epik_Tot_abs_Q>
1

> <r_epik_Metal_State_Penalty>
0.119957

> <b_epik_Metal_Only>
1

> <s_epik_Chemistry_Notes>
This compound has an ester and may undergo hydrolysis at high or low pH. This compound contains an acetal/aminal-like group ( X-CH(R)-Y where X, Y are N, S, or O) that may be acid/base labile, releasing an aldehyde.

> <s_lp_Force_Field>
OPLS_2005

> <r_lp_Energy>
40.7876

> <b_lp_Chiralities_Consistent>
1

> <s_lp_Variant>
AV-unprocessed.smi:101-21

> <Gold.Version>
5.8.1

> <Gold.Id.Protein>
6NUR|6NUR_protein|mol2

> <Gold.PLP.Fitness>
50.0091

> <Gold.PLP.PLP>
-37.8395

> <Gold.PLP.part.hbond>
-4.7408

> <Gold.PLP.part.metal>
0.0000

> <Gold.PLP.part.buried>
-5.5724

> <Gold.PLP.part.nonpolar>
-26.8930

> <Gold.PLP.part.repulsive>
0.0188

> <Gold.PLP.ligand.clash>
0.0000

> <Gold.PLP.ligand.torsion>
0.7082

> <Gold.PLP.Chemscore.Hbond>
4.5040

> <Gold.PLP.Chemscore.CHOScore>
0.0000

> <Gold.PLP.Chemscore.Metal>
0.0000

> <Gold.Chemscore.Hbonds>
donor molecule, donor type, donor heavy atom, donor atom, acceptor molecule, acceptor atom, score
      L1  H    21    43       P1  7948  1.00
      P1  H  6896  6908       L1    23  1.00
      P1  H  6931  6943       L1    24  1.45
      P1  H  7997  8009       L1    11  0.65

> <Gold.PLP.Chemscore.Internal.Correction>
0.0741

> <Gold.Rescore>
     Score         DG    S(hbond)    S(metal)    S(lipo)     H(rot)  DE(clash)    DE(int)     intcor
     15.41     -17.77       3.21        0.00      84.97       3.27       0.19       2.16       ----

> <Gold.Chemscore.Fitness>
15.4150

> <Gold.Chemscore.DG>
-17.7733

> <Gold.Chemscore.ZeroCoef>
-5.4800

> <Gold.Chemscore.Hbond>
3.2070

> <Gold.Chemscore.Metal>
0.0000

> <Gold.Chemscore.Lipo>
84.9711

> <Gold.Chemscore.Internal_Hbond>
0.0000

> <Gold.Chemscore.DEClash>
0.1939

> <Gold.Chemscore.DEInternal>
2.1644

> <Gold.Chemscore.Rot>
3.2656

> <Gold.Chemscore.Internal.Correction>
   9.000000E+99

> <Gold.Chemscore.Hbonds>
donor molecule, donor type, donor heavy atom, donor atom, acceptor molecule, acceptor atom, score
      L1  H    21    43       P1  7948  0.44
      P1  H  6896  6908       L1    23  0.45
      P1  H  6931  6943       L1    24  0.36
      P1  H  7997  8009       L1    11  0.48

> <Gold.Chemscore.Hbond.Weighted>
-10.7115

> <Gold.Chemscore.Metal.Weighted>
-0.0000

> <Gold.Chemscore.Lipo.Weighted>
-9.9416

> <Gold.Chemscore.Internal_Hbond.Weighted>
0.0000

> <Gold.Chemscore.DEClash.Weighted>
0.1939

> <Gold.Chemscore.DEInternal.Weighted>
2.1644

> <Gold.Chemscore.Rot.Weighted>
8.3598

> <Gold.Chemscore.Internal.Correction.Weighted>
   9.000000E+99

> <Gold.Protein.RotatedTorsions>
[ 6907 6896 6895 6894 ] final -137.79 input  -60.11 | X-H torsion
[ 7974 7965 7964 7962 ] final  179.75 input  175.53 | X-H torsion
[ 8008 7997 7996 7995 ] final  154.50 input   59.86 | X-H torsion
[ 10167 10162 10161 10158 ] final  -49.97 input  -65.29 | X-H torsion
[ 10718 10713 10712 10709 ] final  -64.91 input   66.30 | X-H torsion
[ 10763 10752 10751 10750 ] final   52.75 input  -60.55 | X-H torsion
[ 11005 11000 10999 10996 ] final   88.35 input  -57.11 | X-H torsion

> <Gold.Protein.ActiveResidues>
 VAL166  LYS551  ARG553  GLY616  TRP617  ASP618  TYR619  PRO620  LYS621  CYS622 
 ASP623  PHE694  ASN695  SER759  ASP760  ASP761  ALA762  ILE779  LEU786  VAL792 
 PHE793  MET794  SER795  GLU796  ALA797  LYS798  CYS799  TRP800  GLU811  SER814 

> <Gold.Protein.RotatedAtoms>
  151.0269  133.5825  159.2664 H   0  0  0  0  0  0  0  0  0  0  0  0  # atno 6907 bound_to 6896
  151.2921  135.0744  159.9218 H   0  0  0  0  0  0  0  0  0  0  0  0  # atno 6908 bound_to 6896
  152.5336  133.9966  159.7929 H   0  0  0  0  0  0  0  0  0  0  0  0  # atno 6909 bound_to 6896
  144.7143  140.0595  143.6433 H   0  0  0  0  0  0  0  0  0  0  0  0  # atno 7974 bound_to 7965
  156.2528  140.1965  156.6655 H   0  0  0  0  0  0  0  0  0  0  0  0  # atno 8008 bound_to 7997
  154.6432  140.0581  156.9895 H   0  0  0  0  0  0  0  0  0  0  0  0  # atno 8009 bound_to 7997
  155.1531  140.3253  155.4429 H   0  0  0  0  0  0  0  0  0  0  0  0  # atno 8010 bound_to 7997
  140.6660  143.2676  151.4292 H   0  0  0  0  0  0  0  0  0  0  0  0  # atno 10167 bound_to 10162
  156.0701  130.4240  150.1488 H   0  0  0  0  0  0  0  0  0  0  0  0  # atno 10718 bound_to 10713
  152.9790  135.5802  154.4629 H   0  0  0  0  0  0  0  0  0  0  0  0  # atno 10763 bound_to 10752
  154.4203  135.2771  155.1982 H   0  0  0  0  0  0  0  0  0  0  0  0  # atno 10764 bound_to 10752
  154.3734  135.6163  153.5806 H   0  0  0  0  0  0  0  0  0  0  0  0  # atno 10765 bound_to 10752
  139.8898  134.8482  156.2988 H   0  0  0  0  0  0  0  0  0  0  0  0  # atno 11005 bound_to 11000
  145.9876  139.2989  143.1004 LP  0  0  0  0  0  0  0  0  0  0  0  0  # atno 17320 bound_to 7965
  145.8940  140.9286  143.0537 LP  0  0  0  0  0  0  0  0  0  0  0  0  # atno 17321 bound_to 7965
  139.5909  144.1501  152.2087 LP  0  0  0  0  0  0  0  0  0  0  0  0  # atno 17342 bound_to 10162
  140.0855  144.5664  150.7091 LP  0  0  0  0  0  0  0  0  0  0  0  0  # atno 17343 bound_to 10162
  156.9541  130.9784  151.3492 LP  0  0  0  0  0  0  0  0  0  0  0  0  # atno 17370 bound_to 10713
  157.5766  130.8347  149.8464 LP  0  0  0  0  0  0  0  0  0  0  0  0  # atno 17371 bound_to 10713
  140.9927  133.7199  156.0838 LP  0  0  0  0  0  0  0  0  0  0  0  0  # atno 17394 bound_to 11000
  140.7604  134.3946  157.5526 LP  0  0  0  0  0  0  0  0  0  0  0  0  # atno 17395 bound_to 11000

$$$$
