AV-unprocessed.smi:1304|AV-procd|sdf|5429|dock7
  -GOLD-   22720 4593D 1   1.00000     0.00000
 Structure written by MMmdl.
 47 48  0  0  0  0  0  0  0  0  1 V2000
  146.1548  143.0721  153.7454 C   0  0  0  0  0  0  0  0  0  0  0  0
  147.5523  142.5846  154.1688 C   0  0  0  0  0  0  0  0  0  0  0  0
  147.5806  141.3113  155.0738 C   0  0  1  0  0  0  0  0  0  0  0  0
  147.0492  140.1441  154.1984 C   0  0  0  0  0  0  0  0  0  0  0  0
  149.0635  140.9953  155.4568 C   0  0  0  0  0  0  0  0  0  0  0  0
  149.8080  142.1562  155.9443 N   0  0  0  0  0  0  0  0  0  0  0  0
  150.7672  142.1359  156.8821 C   0  0  0  0  0  0  0  0  0  0  0  0
  151.1663  141.1038  157.4224 O   0  0  0  0  0  0  0  0  0  0  0  0
  151.3696  143.4951  157.2613 C   0  0  0  0  0  0  0  0  0  0  0  0
  151.7356  143.5747  158.6849 N   0  0  0  0  0  0  0  0  0  0  0  0
  152.6535  142.6214  159.1692 C   0  0  0  0  0  0  0  0  0  0  0  0
  153.0509  142.6061  160.4513 C   0  0  0  0  0  0  0  0  0  0  0  0
  152.5119  143.6035  161.3452 C   0  0  0  0  0  0  0  0  0  0  0  0
  151.6311  144.5181  160.8931 C   0  0  0  0  0  0  0  0  0  0  0  0
  151.1917  144.5370  159.4931 C   0  0  0  0  0  0  0  0  0  0  0  0
  150.3847  145.3669  159.0724 O   0  0  0  0  0  0  0  0  0  0  0  0
  146.7213  141.4963  156.2779 N   0  0  0  0  0  0  0  0  0  0  0  0
  146.5392  140.3001  157.1090 C   0  0  0  0  0  0  0  0  0  0  0  0
  145.5283  140.5358  158.2445 C   0  0  0  0  0  0  0  0  0  0  0  0
  145.9463  141.6395  159.0387 O   0  0  0  0  0  0  0  0  0  0  0  0
  146.0807  142.8352  158.2797 C   0  0  0  0  0  0  0  0  0  0  0  0
  147.0988  142.6172  157.1478 C   0  0  0  0  0  0  0  0  0  0  0  0
  146.2361  143.9646  153.1248 H   0  0  0  0  0  0  0  0  0  0  0  0
  145.5357  143.3303  154.6043 H   0  0  0  0  0  0  0  0  0  0  0  0
  145.6235  142.3209  153.1618 H   0  0  0  0  0  0  0  0  0  0  0  0
  148.1167  142.4044  153.2536 H   0  0  0  0  0  0  0  0  0  0  0  0
  148.0793  143.4053  154.6553 H   0  0  0  0  0  0  0  0  0  0  0  0
  147.5048  140.1337  153.2077 H   0  0  0  0  0  0  0  0  0  0  0  0
  145.9705  140.2080  154.0537 H   0  0  0  0  0  0  0  0  0  0  0  0
  147.2601  139.1714  154.6427 H   0  0  0  0  0  0  0  0  0  0  0  0
  149.1150  140.1917  156.1916 H   0  0  0  0  0  0  0  0  0  0  0  0
  149.6119  140.6341  154.5877 H   0  0  0  0  0  0  0  0  0  0  0  0
  149.5502  143.0516  155.5552 H   0  0  0  0  0  0  0  0  0  0  0  0
  152.2393  143.6684  156.6263 H   0  0  0  0  0  0  0  0  0  0  0  0
  150.6697  144.2958  157.0135 H   0  0  0  0  0  0  0  0  0  0  0  0
  153.0041  141.9063  158.4393 H   0  0  0  0  0  0  0  0  0  0  0  0
  153.7521  141.8649  160.8059 H   0  0  0  0  0  0  0  0  0  0  0  0
  152.8153  143.6156  162.3815 H   0  0  0  0  0  0  0  0  0  0  0  0
  151.2379  145.2564  161.5765 H   0  0  0  0  0  0  0  0  0  0  0  0
  146.1793  139.4626  156.5139 H   0  0  0  0  0  0  0  0  0  0  0  0
  147.4891  139.9942  157.5467 H   0  0  0  0  0  0  0  0  0  0  0  0
  144.5318  140.7241  157.8417 H   0  0  0  0  0  0  0  0  0  0  0  0
  145.4557  139.6506  158.8765 H   0  0  0  0  0  0  0  0  0  0  0  0
  145.1113  143.1308  157.8753 H   0  0  0  0  0  0  0  0  0  0  0  0
  146.4122  143.6389  158.9370 H   0  0  0  0  0  0  0  0  0  0  0  0
  148.0782  142.4395  157.5917 H   0  0  0  0  0  0  0  0  0  0  0  0
  147.1723  143.5444  156.5828 H   0  0  0  0  0  0  0  0  0  0  0  0
  1  2  1  0  0  0  0
  1 23  1  0  0  0  0
  1 24  1  0  0  0  0
  1 25  1  0  0  0  0
  2  3  1  0  0  0  0
  2 26  1  0  0  0  0
  2 27  1  0  0  0  0
  3  4  1  0  0  0  0
  3  5  1  0  0  0  0
  3 17  1  0  0  0  0
  4 28  1  0  0  0  0
  4 29  1  0  0  0  0
  4 30  1  0  0  0  0
  5  6  1  0  0  0  0
  5 31  1  0  0  0  0
  5 32  1  0  0  0  0
  6  7  1  0  0  0  0
  6 33  1  0  0  0  0
  7  8  2  0  0  0  0
  7  9  1  0  0  0  0
  9 10  1  0  0  0  0
  9 34  1  0  0  0  0
  9 35  1  0  0  0  0
 10 15  1  0  0  0  0
 10 11  1  0  0  0  0
 11 12  2  0  0  0  0
 11 36  1  0  0  0  0
 12 13  1  0  0  0  0
 12 37  1  0  0  0  0
 13 14  2  0  0  0  0
 13 38  1  0  0  0  0
 14 15  1  0  0  0  0
 14 39  1  0  0  0  0
 15 16  2  0  0  0  0
 17 22  1  0  0  0  0
 17 18  1  0  0  0  0
 18 19  1  0  0  0  0
 18 40  1  0  0  0  0
 18 41  1  0  0  0  0
 19 20  1  0  0  0  0
 19 42  1  0  0  0  0
 19 43  1  0  0  0  0
 20 21  1  0  0  0  0
 21 22  1  0  0  0  0
 21 44  1  0  0  0  0
 21 45  1  0  0  0  0
 22 46  1  0  0  0  0
 22 47  1  0  0  0  0
M  END
> <s_m_source_file>
AV-unprocessed.smi

> <i_m_source_file_index>
1304

> <i_lp_mmshare_version>
43012

> <i_f3d_flags>
0

> <s_epik_input>
W0NIMl0xW0NIMl1PW0NIMl1bQ0gyXU4xW0NAQF0oW0NIM10pKFtDSDJdW0NIM10pW0NIMl1bTkhdQyg9TylbQ0gyXW4yW2NIXVtjSF1bY0hdW2NIXWMyPU8=

> <s_epik_cmdline>
J2VwaWtfcHl0aG9uJywgJy1waCcsICc3LjAnLCAnLXRuJywgJzgnLCAnLW1hJywgJzIwMCcsICctbWV0YWxfYmluZGluZycsICctaW1hZScsICc8aW5maWxlLm1hZT4nLCAnLW9tYWUnLCAnPG91dGZpbGUubWFlPic=

> <r_lp_tautomer_probability>
1

> <r_epik_Ionization_Penalty>
0.318667

> <r_epik_Ionization_Penalty_Charging>
3.55364e-07

> <r_epik_Ionization_Penalty_Neutral>
0.318667

> <r_epik_State_Penalty>
0.313095

> <r_epik_Charging_Adjusted_Penalty>
0.313095

> <i_epik_Tot_Q>
0

> <i_epik_Tot_abs_Q>
0

> <r_epik_Metal_State_Penalty>
0.313065

> <b_epik_Metal_Only>
0

> <s_lp_Force_Field>
OPLS_2005

> <r_lp_Energy>
51.6355

> <b_lp_Chiralities_Consistent>
1

> <s_lp_Variant>
AV-unprocessed.smi:1304-1

> <Gold.Version>
5.8.1

> <Gold.Id.Protein>
6NUR|6NUR_protein|mol2

> <Gold.PLP.Fitness>
45.5166

> <Gold.PLP.PLP>
-41.3614

> <Gold.PLP.part.hbond>
-2.0000

> <Gold.PLP.part.metal>
0.0000

> <Gold.PLP.part.buried>
-3.5350

> <Gold.PLP.part.nonpolar>
-36.7645

> <Gold.PLP.part.repulsive>
0.3920

> <Gold.PLP.ligand.clash>
0.0000

> <Gold.PLP.ligand.torsion>
0.7423

> <Gold.PLP.Chemscore.Hbond>
1.8320

> <Gold.PLP.Chemscore.CHOScore>
0.0000

> <Gold.PLP.Chemscore.Metal>
0.0000

> <Gold.Chemscore.Hbonds>
donor molecule, donor type, donor heavy atom, donor atom, acceptor molecule, acceptor atom, score
      L1  H     6    33       P1  8028  1.00
      P1  H  6934  6946       L1    20  0.80

> <Gold.PLP.Chemscore.Internal.Correction>
0.1438

> <Gold.Rescore>
     Score         DG    S(hbond)    S(metal)    S(lipo)     H(rot)  DE(clash)    DE(int)     intcor
     13.06     -16.56       1.64        0.00      90.68       1.95       0.26       3.24       ----

> <Gold.Chemscore.Fitness>
13.0562

> <Gold.Chemscore.DG>
-16.5558

> <Gold.Chemscore.ZeroCoef>
-5.4800

> <Gold.Chemscore.Hbond>
1.6353

> <Gold.Chemscore.Metal>
0.0000

> <Gold.Chemscore.Lipo>
90.6819

> <Gold.Chemscore.Internal_Hbond>
0.0000

> <Gold.Chemscore.DEClash>
0.2646

> <Gold.Chemscore.DEInternal>
3.2350

> <Gold.Chemscore.Rot>
1.9515

> <Gold.Chemscore.Internal.Correction>
   9.000000E+99

> <Gold.Chemscore.Hbonds>
donor molecule, donor type, donor heavy atom, donor atom, acceptor molecule, acceptor atom, score
      L1  H     6    33       P1  8028  0.98
      P1  H  6934  6946       L1    20  0.42

> <Gold.Chemscore.Hbond.Weighted>
-5.4618

> <Gold.Chemscore.Metal.Weighted>
-0.0000

> <Gold.Chemscore.Lipo.Weighted>
-10.6098

> <Gold.Chemscore.Internal_Hbond.Weighted>
0.0000

> <Gold.Chemscore.DEClash.Weighted>
0.2646

> <Gold.Chemscore.DEInternal.Weighted>
3.2350

> <Gold.Chemscore.Rot.Weighted>
4.9958

> <Gold.Chemscore.Internal.Correction.Weighted>
   9.000000E+99

> <Gold.Protein.RotatedTorsions>
[ 6907 6896 6895 6894 ] final -155.82 input  -60.11 | X-H torsion
[ 7974 7965 7964 7962 ] final  -78.12 input  175.53 | X-H torsion
[ 8008 7997 7996 7995 ] final  -76.39 input   59.86 | X-H torsion
[ 10167 10162 10161 10158 ] final   78.30 input  -65.29 | X-H torsion
[ 10718 10713 10712 10709 ] final -114.76 input   66.30 | X-H torsion
[ 10763 10752 10751 10750 ] final  120.69 input  -60.55 | X-H torsion
[ 11005 11000 10999 10996 ] final  -21.84 input  -57.11 | X-H torsion

> <Gold.Protein.ActiveResidues>
 VAL166  LYS551  ARG553  GLY616  TRP617  ASP618  TYR619  PRO620  LYS621  CYS622 
 ASP623  PHE694  ASN695  SER759  ASP760  ASP761  ALA762  ILE779  LEU786  VAL792 
 PHE793  MET794  SER795  GLU796  ALA797  LYS798  CYS799  TRP800  GLU811  SER814 

> <Gold.Protein.RotatedAtoms>
  151.2783  133.4222  159.2625 H   0  0  0  0  0  0  0  0  0  0  0  0  # atno 6907 bound_to 6896
  151.0383  134.9589  159.8158 H   0  0  0  0  0  0  0  0  0  0  0  0  # atno 6908 bound_to 6896
  152.5360  134.2742  159.9035 H   0  0  0  0  0  0  0  0  0  0  0  0  # atno 6909 bound_to 6896
  145.5906  140.9430  143.1294 H   0  0  0  0  0  0  0  0  0  0  0  0  # atno 7974 bound_to 7965
  154.5501  140.0728  156.8653 H   0  0  0  0  0  0  0  0  0  0  0  0  # atno 8008 bound_to 7997
  155.3010  140.3384  155.4229 H   0  0  0  0  0  0  0  0  0  0  0  0  # atno 8009 bound_to 7997
  156.1953  140.1701  156.7996 H   0  0  0  0  0  0  0  0  0  0  0  0  # atno 8010 bound_to 7997
  139.9724  144.5885  150.7973 H   0  0  0  0  0  0  0  0  0  0  0  0  # atno 10167 bound_to 10162
  156.0851  130.6044  150.8817 H   0  0  0  0  0  0  0  0  0  0  0  0  # atno 10718 bound_to 10713
  153.6024  135.3445  155.2950 H   0  0  0  0  0  0  0  0  0  0  0  0  # atno 10763 bound_to 10752
  154.8633  135.4231  154.2398 H   0  0  0  0  0  0  0  0  0  0  0  0  # atno 10764 bound_to 10752
  153.3230  135.7039  153.7086 H   0  0  0  0  0  0  0  0  0  0  0  0  # atno 10765 bound_to 10752
  140.8600  133.7795  156.0063 H   0  0  0  0  0  0  0  0  0  0  0  0  # atno 11005 bound_to 11000
  144.7353  139.7605  143.7332 LP  0  0  0  0  0  0  0  0  0  0  0  0  # atno 17320 bound_to 7965
  146.1649  139.4777  142.9964 LP  0  0  0  0  0  0  0  0  0  0  0  0  # atno 17321 bound_to 7965
  140.7517  143.2977  151.3160 LP  0  0  0  0  0  0  0  0  0  0  0  0  # atno 17342 bound_to 10162
  139.6471  144.0431  152.2599 LP  0  0  0  0  0  0  0  0  0  0  0  0  # atno 17343 bound_to 10162
  157.5982  131.0942  150.9005 LP  0  0  0  0  0  0  0  0  0  0  0  0  # atno 17370 bound_to 10713
  156.9168  130.5300  149.5279 LP  0  0  0  0  0  0  0  0  0  0  0  0  # atno 17371 bound_to 10713
  140.8694  134.2745  157.5198 LP  0  0  0  0  0  0  0  0  0  0  0  0  # atno 17394 bound_to 11000
  139.8706  134.9559  156.4222 LP  0  0  0  0  0  0  0  0  0  0  0  0  # atno 17395 bound_to 11000

$$$$
