AV-unprocessed.smi:2108|AV-procd|sdf|8604|dock8
  -GOLD-   2272011343D 1   1.00000     0.00000
 Structure written by MMmdl.
 35 36  0  0  0  0  0  0  0  0  1 V2000
  153.0982  137.5598  158.3555 O   0  0  0  0  0  0  0  0  0  0  0  0
  152.2104  136.8282  157.4393 S   0  0  0  0  0  0  0  0  0  0  0  0
  152.7078  135.7102  156.6228 O   0  0  0  0  0  0  0  0  0  0  0  0
  150.8363  136.2774  158.3264 N   0  0  0  0  0  0  0  0  0  0  0  0
  150.0801  137.2206  159.1509 C   0  0  0  0  0  0  0  0  0  0  0  0
  148.5831  136.8889  159.1093 C   0  0  0  0  0  0  0  0  0  0  0  0
  148.1179  136.2008  160.3790 C   0  0  0  0  0  0  0  0  0  0  0  0
  148.0237  134.7941  160.4426 C   0  0  0  0  0  0  0  0  0  0  0  0
  147.5709  134.2053  161.6390 C   0  0  0  0  0  0  0  0  0  0  0  0
  147.2304  135.0416  162.7198 C   0  0  0  0  0  0  0  0  0  0  0  0
  147.3580  136.4352  162.5552 C   0  0  0  0  0  0  0  0  0  0  0  0
  147.7906  137.0101  161.4119 N   0  0  0  0  0  0  0  0  0  0  0  0
  151.4394  137.9761  156.3959 N   0  0  0  0  0  0  0  0  0  0  0  0
  151.3271  137.6248  154.9716 C   0  0  0  0  0  0  0  0  0  0  0  0
  150.3745  138.5866  154.2428 C   0  0  0  0  0  0  0  0  0  0  0  0
  150.7834  139.9304  154.4489 O   0  0  0  0  0  0  0  0  0  0  0  0
  150.7359  140.2834  155.8232 C   0  0  0  0  0  0  0  0  0  0  0  0
  151.7088  139.4061  156.6271 C   0  0  0  0  0  0  0  0  0  0  0  0
  150.9737  135.3616  158.7534 H   0  0  0  0  0  0  0  0  0  0  0  0
  150.4505  137.1770  160.1756 H   0  0  0  0  0  0  0  0  0  0  0  0
  150.2507  138.2342  158.7865 H   0  0  0  0  0  0  0  0  0  0  0  0
  148.0024  137.8008  158.9619 H   0  0  0  0  0  0  0  0  0  0  0  0
  148.3650  136.2443  158.2563 H   0  0  0  0  0  0  0  0  0  0  0  0
  148.2874  134.1797  159.5941 H   0  0  0  0  0  0  0  0  0  0  0  0
  147.4845  133.1322  161.7253 H   0  0  0  0  0  0  0  0  0  0  0  0
  146.8791  134.6254  163.6525 H   0  0  0  0  0  0  0  0  0  0  0  0
  147.1038  137.1061  163.3624 H   0  0  0  0  0  0  0  0  0  0  0  0
  152.3190  137.6610  154.5197 H   0  0  0  0  0  0  0  0  0  0  0  0
  150.9644  136.6020  154.8699 H   0  0  0  0  0  0  0  0  0  0  0  0
  150.3781  138.3761  153.1733 H   0  0  0  0  0  0  0  0  0  0  0  0
  149.3485  138.4497  154.5883 H   0  0  0  0  0  0  0  0  0  0  0  0
  151.0073  141.3341  155.9271 H   0  0  0  0  0  0  0  0  0  0  0  0
  149.7181  140.1802  156.2032 H   0  0  0  0  0  0  0  0  0  0  0  0
  151.6231  139.6388  157.6881 H   0  0  0  0  0  0  0  0  0  0  0  0
  152.7370  139.6224  156.3348 H   0  0  0  0  0  0  0  0  0  0  0  0
  1  2  2  0  0  0  0
  2  3  2  0  0  0  0
  2  4  1  0  0  0  0
  2 13  1  0  0  0  0
  4  5  1  0  0  0  0
  4 19  1  0  0  0  0
  5  6  1  0  0  0  0
  5 20  1  0  0  0  0
  5 21  1  0  0  0  0
  6  7  1  0  0  0  0
  6 22  1  0  0  0  0
  6 23  1  0  0  0  0
  7 12  1  0  0  0  0
  7  8  2  0  0  0  0
  8  9  1  0  0  0  0
  8 24  1  0  0  0  0
  9 10  2  0  0  0  0
  9 25  1  0  0  0  0
 10 11  1  0  0  0  0
 10 26  1  0  0  0  0
 11 12  2  0  0  0  0
 11 27  1  0  0  0  0
 13 18  1  0  0  0  0
 13 14  1  0  0  0  0
 14 15  1  0  0  0  0
 14 28  1  0  0  0  0
 14 29  1  0  0  0  0
 15 16  1  0  0  0  0
 15 30  1  0  0  0  0
 15 31  1  0  0  0  0
 16 17  1  0  0  0  0
 17 18  1  0  0  0  0
 17 32  1  0  0  0  0
 17 33  1  0  0  0  0
 18 34  1  0  0  0  0
 18 35  1  0  0  0  0
M  END
> <s_m_source_file>
AV-unprocessed.smi

> <i_m_source_file_index>
2108

> <i_lp_mmshare_version>
43012

> <i_f3d_flags>
0

> <s_epik_input>
W0NIMl0xW0NIMl1PW0NIMl1bQ0gyXU4xUyg9TykoPU8pW05IXVtDSDJdW0NIMl1jMltjSF1bY0hdW2NIXVtjSF1uMg==

> <s_epik_cmdline>
J2VwaWtfcHl0aG9uJywgJy1waCcsICc3LjAnLCAnLXRuJywgJzgnLCAnLW1hJywgJzIwMCcsICctbWV0YWxfYmluZGluZycsICctaW1hZScsICc8aW5maWxlLm1hZT4nLCAnLW9tYWUnLCAnPG91dGZpbGUubWFlPic=

> <r_epik_Ionization_Penalty>
0.085378

> <r_epik_Ionization_Penalty_Charging>
0

> <r_epik_Ionization_Penalty_Neutral>
0.085378

> <r_epik_State_Penalty>
0.0441186

> <r_epik_Charging_Adjusted_Penalty>
0.0441186

> <i_epik_Tot_Q>
0

> <i_epik_Tot_abs_Q>
0

> <r_epik_Metal_State_Penalty>
0.24397

> <b_epik_Metal_Only>
0

> <s_lp_Force_Field>
OPLS_2005

> <r_lp_Energy>
7.91242

> <b_lp_Chiralities_Consistent>
1

> <s_lp_Variant>
AV-unprocessed.smi:2108-1

> <Gold.Version>
5.8.1

> <Gold.Id.Protein>
6NUR|6NUR_protein|mol2

> <Gold.PLP.Fitness>
45.1707

> <Gold.PLP.PLP>
-35.6902

> <Gold.PLP.part.hbond>
-5.0000

> <Gold.PLP.part.metal>
0.0000

> <Gold.PLP.part.buried>
-4.6713

> <Gold.PLP.part.nonpolar>
-26.2999

> <Gold.PLP.part.repulsive>
0.1102

> <Gold.PLP.ligand.clash>
0.0000

> <Gold.PLP.ligand.torsion>
1.2995

> <Gold.PLP.Chemscore.Hbond>
3.7520

> <Gold.PLP.Chemscore.CHOScore>
0.0000

> <Gold.PLP.Chemscore.Metal>
0.0000

> <Gold.Chemscore.Hbonds>
donor molecule, donor type, donor heavy atom, donor atom, acceptor molecule, acceptor atom, score
      P1  H  6931  6943       L1    12  1.00
      P1  H  6934  6947       L1    12  0.55
      P1  H  7989  7998       L1    16  1.00
      P1  H 10752 10765       L1     3  1.00

> <Gold.PLP.Chemscore.Internal.Correction>
0.8235

> <Gold.Rescore>
     Score         DG    S(hbond)    S(metal)    S(lipo)     H(rot)  DE(clash)    DE(int)     intcor
     19.03     -20.37       3.31        0.00      73.12       1.84       0.00       1.33       ----

> <Gold.Chemscore.Fitness>
19.0321

> <Gold.Chemscore.DG>
-20.3680

> <Gold.Chemscore.ZeroCoef>
-5.4800

> <Gold.Chemscore.Hbond>
3.3050

> <Gold.Chemscore.Metal>
0.0000

> <Gold.Chemscore.Lipo>
73.1187

> <Gold.Chemscore.Internal_Hbond>
0.0000

> <Gold.Chemscore.DEClash>
0.0048

> <Gold.Chemscore.DEInternal>
1.3311

> <Gold.Chemscore.Rot>
1.8382

> <Gold.Chemscore.Internal.Correction>
   9.000000E+99

> <Gold.Chemscore.Hbonds>
donor molecule, donor type, donor heavy atom, donor atom, acceptor molecule, acceptor atom, score
      P1  H  6931  6943       L1    12  0.51
      P1  H  6934  6947       L1    12  0.50
      P1  H  7989  7998       L1    16  0.92
      P1  H 10752 10765       L1     3  0.95

> <Gold.Chemscore.Hbond.Weighted>
-11.0388

> <Gold.Chemscore.Metal.Weighted>
-0.0000

> <Gold.Chemscore.Lipo.Weighted>
-8.5549

> <Gold.Chemscore.Internal_Hbond.Weighted>
0.0000

> <Gold.Chemscore.DEClash.Weighted>
0.0048

> <Gold.Chemscore.DEInternal.Weighted>
1.3311

> <Gold.Chemscore.Rot.Weighted>
4.7057

> <Gold.Chemscore.Internal.Correction.Weighted>
   9.000000E+99

> <Gold.Protein.RotatedTorsions>
[ 6907 6896 6895 6894 ] final   71.52 input  -60.11 | X-H torsion
[ 7974 7965 7964 7962 ] final   -2.79 input  175.53 | X-H torsion
[ 8008 7997 7996 7995 ] final  -63.70 input   59.86 | X-H torsion
[ 10167 10162 10161 10158 ] final  -48.57 input  -65.29 | X-H torsion
[ 10718 10713 10712 10709 ] final   -7.39 input   66.30 | X-H torsion
[ 10763 10752 10751 10750 ] final -131.54 input  -60.55 | X-H torsion
[ 11005 11000 10999 10996 ] final   81.71 input  -57.11 | X-H torsion

> <Gold.Protein.ActiveResidues>
 VAL166  LYS551  ARG553  GLY616  TRP617  ASP618  TYR619  PRO620  LYS621  CYS622 
 ASP623  PHE694  ASN695  SER759  ASP760  ASP761  ALA762  ILE779  LEU786  VAL792 
 PHE793  MET794  SER795  GLU796  ALA797  LYS798  CYS799  TRP800  GLU811  SER814 

> <Gold.Protein.RotatedAtoms>
  152.4815  134.4708  159.9634 H   0  0  0  0  0  0  0  0  0  0  0  0  # atno 6907 bound_to 6896
  151.4713  133.3562  159.2832 H   0  0  0  0  0  0  0  0  0  0  0  0  # atno 6908 bound_to 6896
  150.8891  134.8318  159.7341 H   0  0  0  0  0  0  0  0  0  0  0  0  # atno 6909 bound_to 6896
  146.2399  140.1624  142.8332 H   0  0  0  0  0  0  0  0  0  0  0  0  # atno 7974 bound_to 7965
  154.4569  140.0969  156.6783 H   0  0  0  0  0  0  0  0  0  0  0  0  # atno 8008 bound_to 7997
  155.5111  140.3476  155.4370 H   0  0  0  0  0  0  0  0  0  0  0  0  # atno 8009 bound_to 7997
  156.0795  140.1369  156.9719 H   0  0  0  0  0  0  0  0  0  0  0  0  # atno 8010 bound_to 7997
  140.6725  143.2734  151.4090 H   0  0  0  0  0  0  0  0  0  0  0  0  # atno 10167 bound_to 10162
  156.7179  130.5142  149.5875 H   0  0  0  0  0  0  0  0  0  0  0  0  # atno 10718 bound_to 10713
  154.8750  135.3827  154.4263 H   0  0  0  0  0  0  0  0  0  0  0  0  # atno 10763 bound_to 10752
  153.4962  135.7030  153.5862 H   0  0  0  0  0  0  0  0  0  0  0  0  # atno 10764 bound_to 10752
  153.4214  135.3900  155.2080 H   0  0  0  0  0  0  0  0  0  0  0  0  # atno 10765 bound_to 10752
  139.9088  134.8017  156.2078 H   0  0  0  0  0  0  0  0  0  0  0  0  # atno 11005 bound_to 11000
  145.0079  140.8688  143.5242 LP  0  0  0  0  0  0  0  0  0  0  0  0  # atno 17320 bound_to 7965
  145.1653  139.2435  143.5370 LP  0  0  0  0  0  0  0  0  0  0  0  0  # atno 17321 bound_to 7965
  139.6000  144.1316  152.2187 LP  0  0  0  0  0  0  0  0  0  0  0  0  # atno 17342 bound_to 10162
  140.0697  144.5789  150.7201 LP  0  0  0  0  0  0  0  0  0  0  0  0  # atno 17343 bound_to 10162
  156.1615  130.6377  151.0724 LP  0  0  0  0  0  0  0  0  0  0  0  0  # atno 17370 bound_to 10713
  157.6910  131.0810  150.7108 LP  0  0  0  0  0  0  0  0  0  0  0  0  # atno 17371 bound_to 10713
  141.0484  133.6901  156.1727 LP  0  0  0  0  0  0  0  0  0  0  0  0  # atno 17394 bound_to 11000
  140.6848  134.4729  157.5589 LP  0  0  0  0  0  0  0  0  0  0  0  0  # atno 17395 bound_to 11000

$$$$
