AV-unprocessed.smi:283|AV-procd|sdf|2125|dock7
  -GOLD-   2262021433D 1   1.00000     0.00000
 Structure written by MMmdl.
 48 51  0  0  0  0  0  0  0  0  1 V2000
  149.4121  141.9570  157.2980 C   0  0  0  0  0  0  0  0  0  0  0  0
  150.8916  142.3671  157.1818 C   0  0  2  0  0  0  0  0  0  0  0  0
  151.7295  141.2260  156.8143 N   0  0  0  0  0  0  0  0  0  0  0  0
  151.2100  140.1165  156.2428 C   0  0  0  0  0  0  0  0  0  0  0  0
  151.0603  140.0185  154.8961 N   0  0  0  0  0  0  0  0  0  0  0  0
  150.5427  138.9096  154.3598 C   0  0  0  0  0  0  0  0  0  0  0  0
  150.1191  137.8042  154.9764 N   0  0  0  0  0  0  0  0  0  0  0  0
  150.2724  137.8939  156.3294 C   0  0  0  0  0  0  0  0  0  0  0  0
  150.8091  139.0083  157.0330 C   0  0  0  0  0  0  0  0  0  0  0  0
  150.8153  138.7456  158.3967 N   0  0  0  0  0  0  0  0  0  0  0  0
  150.3094  137.5450  158.4890 C   0  0  0  0  0  0  0  0  0  0  0  0
  149.9494  136.9613  157.2945 N   0  0  0  0  0  0  0  0  0  0  0  0
  149.3423  135.6113  157.0886 C   0  0  2  0  0  0  0  0  0  0  0  0
  150.2931  134.6489  157.4277 O   0  0  0  0  0  0  0  0  0  0  0  0
  150.2571  133.5878  156.4800 C   0  0  2  0  0  0  0  0  0  0  0  0
  151.6062  132.8526  156.4699 C   0  0  0  0  0  0  0  0  0  0  0  0
  151.7766  132.1341  157.6729 O   0  0  0  0  0  0  0  0  0  0  0  0
  149.9541  134.3275  155.1761 C   0  0  1  0  0  0  0  0  0  0  0  0
  149.4562  133.4790  154.1573 O   0  0  0  0  0  0  0  0  0  0  0  0
  148.9598  135.4006  155.6144 C   0  0  1  0  0  0  0  0  0  0  0  0
  147.6167  134.9647  155.5038 O   0  0  0  0  0  0  0  0  0  0  0  0
  151.3470  143.0373  158.4774 C   0  0  0  0  0  0  0  0  0  0  0  0
  150.8562  144.3197  158.8198 C   0  0  0  0  0  0  0  0  0  0  0  0
  151.2742  144.9569  160.0030 C   0  0  0  0  0  0  0  0  0  0  0  0
  152.1941  144.3218  160.8560 C   0  0  0  0  0  0  0  0  0  0  0  0
  152.6982  143.0519  160.5208 C   0  0  0  0  0  0  0  0  0  0  0  0
  152.2840  142.4089  159.3370 C   0  0  0  0  0  0  0  0  0  0  0  0
  152.9542  140.8579  158.9682 Cl  0  0  0  0  0  0  0  0  0  0  0  0
  148.4934  135.5777  157.7734 H   0  0  0  0  0  0  0  0  0  0  0  0
  149.4342  132.9119  156.7209 H   0  0  0  0  0  0  0  0  0  0  0  0
  150.8624  134.8061  154.8100 H   0  0  0  0  0  0  0  0  0  0  0  0
  149.0796  136.3189  155.0375 H   0  0  0  0  0  0  0  0  0  0  0  0
  148.7852  142.8193  157.5266 H   0  0  0  0  0  0  0  0  0  0  0  0
  149.2668  141.2234  158.0916 H   0  0  0  0  0  0  0  0  0  0  0  0
  149.0352  141.5210  156.3733 H   0  0  0  0  0  0  0  0  0  0  0  0
  150.9897  143.0996  156.3816 H   0  0  0  0  0  0  0  0  0  0  0  0
  152.6955  141.2872  157.1021 H   0  0  0  0  0  0  0  0  0  0  0  0
  150.4540  138.9080  153.2835 H   0  0  0  0  0  0  0  0  0  0  0  0
  150.1784  137.0501  159.4404 H   0  0  0  0  0  0  0  0  0  0  0  0
  151.6352  132.1314  155.6528 H   0  0  0  0  0  0  0  0  0  0  0  0
  152.4346  133.5456  156.3189 H   0  0  0  0  0  0  0  0  0  0  0  0
  152.6147  131.6984  157.6462 H   0  0  0  0  0  0  0  0  0  0  0  0
  150.1336  133.3589  153.5094 H   0  0  0  0  0  0  0  0  0  0  0  0
  147.0595  135.7256  155.4458 H   0  0  0  0  0  0  0  0  0  0  0  0
  150.1576  144.8301  158.1735 H   0  0  0  0  0  0  0  0  0  0  0  0
  150.8913  145.9350  160.2544 H   0  0  0  0  0  0  0  0  0  0  0  0
  152.5170  144.8101  161.7637 H   0  0  0  0  0  0  0  0  0  0  0  0
  153.4104  142.5704  161.1747 H   0  0  0  0  0  0  0  0  0  0  0  0
  1  2  1  0  0  0  0
  1 33  1  0  0  0  0
  1 34  1  0  0  0  0
  1 35  1  0  0  0  0
  2  3  1  0  0  0  0
  2 22  1  0  0  0  0
  2 36  1  0  0  0  0
  3  4  1  0  0  0  0
  3 37  1  0  0  0  0
  4  9  1  0  0  0  0
  4  5  2  0  0  0  0
  5  6  1  0  0  0  0
  6  7  2  0  0  0  0
  6 38  1  0  0  0  0
  7  8  1  0  0  0  0
  8 12  1  0  0  0  0
  8  9  2  0  0  0  0
  9 10  1  0  0  0  0
 10 11  2  0  0  0  0
 11 12  1  0  0  0  0
 11 39  1  0  0  0  0
 12 13  1  0  0  0  0
 13 29  1  0  0  0  0
 13 20  1  0  0  0  0
 13 14  1  0  0  0  0
 14 15  1  0  0  0  0
 15 30  1  0  0  0  0
 15 16  1  0  0  0  0
 15 18  1  0  0  0  0
 16 17  1  0  0  0  0
 16 40  1  0  0  0  0
 16 41  1  0  0  0  0
 17 42  1  0  0  0  0
 18 31  1  0  0  0  0
 18 19  1  0  0  0  0
 18 20  1  0  0  0  0
 19 43  1  0  0  0  0
 20 32  1  0  0  0  0
 20 21  1  0  0  0  0
 21 44  1  0  0  0  0
 22 27  1  0  0  0  0
 22 23  2  0  0  0  0
 23 24  1  0  0  0  0
 23 45  1  0  0  0  0
 24 25  2  0  0  0  0
 24 46  1  0  0  0  0
 25 26  1  0  0  0  0
 25 47  1  0  0  0  0
 26 27  2  0  0  0  0
 26 48  1  0  0  0  0
 27 28  1  0  0  0  0
M  END
> <s_m_source_file>
AV-unprocessed.smi

> <i_m_source_file_index>
283

> <i_lp_mmshare_version>
43012

> <i_f3d_flags>
0

> <s_epik_input>
Q2xjMVtjSF1bY0hdW2NIXVtjSF1jMVtDQEhdKFtDSDNdKVtOSF1jKG5bY0hdbjIpYyhjMjMpbltjSF1uM1tDQEBIXTRPW0NASF0oW0NIMl1bT0hdKVtDQEBIXShbT0hdKVtDQEhdNFtPSF0=

> <s_epik_cmdline>
J2VwaWtfcHl0aG9uJywgJy1waCcsICc3LjAnLCAnLXRuJywgJzgnLCAnLW1hJywgJzIwMCcsICctbWV0YWxfYmluZGluZycsICctaW1hZScsICc8aW5maWxlLm1hZT4nLCAnLW9tYWUnLCAnPG91dGZpbGUubWFlPic=

> <r_lp_tautomer_probability>
1

> <r_epik_Ionization_Penalty>
0.000266407

> <r_epik_Ionization_Penalty_Charging>
0

> <r_epik_Ionization_Penalty_Neutral>
0.000266407

> <r_epik_State_Penalty>
-0

> <r_epik_Charging_Adjusted_Penalty>
0

> <i_epik_Tot_Q>
0

> <i_epik_Tot_abs_Q>
0

> <r_epik_Metal_State_Penalty>
-0

> <b_epik_Metal_Only>
0

> <s_epik_Chemistry_Notes>
This compound contains an acetal/aminal-like group ( X-CH(R)-Y where X, Y are N, S, or O) that may be acid/base labile, releasing an aldehyde.

> <s_lp_Force_Field>
OPLS_2005

> <r_lp_Energy>
47.4388

> <b_lp_Chiralities_Consistent>
1

> <s_lp_Variant>
AV-unprocessed.smi:283-1

> <Gold.Version>
5.8.1

> <Gold.Id.Protein>
6NUR|6NUR_protein|mol2

> <Gold.PLP.Fitness>
50.7235

> <Gold.PLP.PLP>
-43.3125

> <Gold.PLP.part.hbond>
-3.0000

> <Gold.PLP.part.metal>
0.0000

> <Gold.PLP.part.buried>
-6.7238

> <Gold.PLP.part.nonpolar>
-33.6363

> <Gold.PLP.part.repulsive>
0.3283

> <Gold.PLP.ligand.clash>
0.2249

> <Gold.PLP.ligand.torsion>
1.4159

> <Gold.PLP.Chemscore.Hbond>
2.4685

> <Gold.PLP.Chemscore.CHOScore>
0.9734

> <Gold.PLP.Chemscore.Metal>
0.0000

> <Gold.Chemscore.Hbonds>
donor molecule, donor type, donor heavy atom, donor atom, acceptor molecule, acceptor atom, score
      P1  H  6896  6907       L1    17  0.99
      P1  H  6896  6908       L1    14  0.42
      P1  H  7989  7998       L1     5  1.00
      L1  C     6    38       P1  7957  0.99

> <Gold.PLP.Chemscore.Internal.Correction>
0.1419

> <Gold.Rescore>
     Score         DG    S(hbond)    S(metal)    S(lipo)     H(rot)  DE(clash)    DE(int)     intcor
      9.29     -13.96       1.98        0.00     105.67       4.10       0.11       4.56       ----

> <Gold.Chemscore.Fitness>
9.2889

> <Gold.Chemscore.DG>
-13.9633

> <Gold.Chemscore.ZeroCoef>
-5.4800

> <Gold.Chemscore.Hbond>
1.9784

> <Gold.Chemscore.Metal>
0.0000

> <Gold.Chemscore.Lipo>
105.6695

> <Gold.Chemscore.Internal_Hbond>
0.0000

> <Gold.Chemscore.DEClash>
0.1134

> <Gold.Chemscore.DEInternal>
4.5610

> <Gold.Chemscore.Rot>
4.0968

> <Gold.Chemscore.Internal.Correction>
   9.000000E+99

> <Gold.Chemscore.Hbonds>
donor molecule, donor type, donor heavy atom, donor atom, acceptor molecule, acceptor atom, score
      P1  H  6896  6907       L1    17  0.36
      P1  H  6896  6908       L1    14  0.38
      P1  H  7989  7998       L1     5  0.35

> <Gold.Chemscore.Hbond.Weighted>
-6.6079

> <Gold.Chemscore.Metal.Weighted>
-0.0000

> <Gold.Chemscore.Lipo.Weighted>
-12.3633

> <Gold.Chemscore.Internal_Hbond.Weighted>
0.0000

> <Gold.Chemscore.DEClash.Weighted>
0.1134

> <Gold.Chemscore.DEInternal.Weighted>
4.5610

> <Gold.Chemscore.Rot.Weighted>
10.4879

> <Gold.Chemscore.Internal.Correction.Weighted>
   9.000000E+99

> <Gold.Protein.RotatedTorsions>
[ 6907 6896 6895 6894 ] final  165.54 input  -60.11 | X-H torsion
[ 7974 7965 7964 7962 ] final   16.75 input  175.53 | X-H torsion
[ 8008 7997 7996 7995 ] final  119.11 input   59.86 | X-H torsion
[ 10167 10162 10161 10158 ] final   78.67 input  -65.29 | X-H torsion
[ 10718 10713 10712 10709 ] final   48.52 input   66.30 | X-H torsion
[ 10763 10752 10751 10750 ] final  -68.98 input  -60.55 | X-H torsion
[ 11005 11000 10999 10996 ] final  -77.35 input  -57.11 | X-H torsion

> <Gold.Protein.ActiveResidues>
 VAL166  LYS551  ARG553  GLY616  TRP617  ASP618  TYR619  PRO620  LYS621  CYS622 
 ASP623  PHE694  ASN695  SER759  ASP760  ASP761  ALA762  ILE779  LEU786  VAL792 
 PHE793  MET794  SER795  GLU796  ALA797  LYS798  CYS799  TRP800  GLU811  SER814 

> <Gold.Protein.RotatedAtoms>
  151.8928  133.3520  159.3803 H   0  0  0  0  0  0  0  0  0  0  0  0  # atno 6907 bound_to 6896
  150.7099  134.4906  159.5523 H   0  0  0  0  0  0  0  0  0  0  0  0  # atno 6908 bound_to 6896
  152.2480  134.8162  160.0501 H   0  0  0  0  0  0  0  0  0  0  0  0  # atno 6909 bound_to 6896
  146.2240  139.8702  142.8589 H   0  0  0  0  0  0  0  0  0  0  0  0  # atno 7974 bound_to 7965
  156.2580  140.2860  156.0940 H   0  0  0  0  0  0  0  0  0  0  0  0  # atno 8008 bound_to 7997
  155.1432  140.0396  157.2821 H   0  0  0  0  0  0  0  0  0  0  0  0  # atno 8009 bound_to 7997
  154.6515  140.2545  155.7215 H   0  0  0  0  0  0  0  0  0  0  0  0  # atno 8010 bound_to 7997
  139.9684  144.5911  150.8007 H   0  0  0  0  0  0  0  0  0  0  0  0  # atno 10167 bound_to 10162
  157.4695  130.8246  149.7972 H   0  0  0  0  0  0  0  0  0  0  0  0  # atno 10718 bound_to 10713
  154.3968  135.6040  153.5874 H   0  0  0  0  0  0  0  0  0  0  0  0  # atno 10763 bound_to 10752
  152.9788  135.5897  154.4231 H   0  0  0  0  0  0  0  0  0  0  0  0  # atno 10764 bound_to 10752
  154.4024  135.2843  155.2066 H   0  0  0  0  0  0  0  0  0  0  0  0  # atno 10765 bound_to 10752
  141.1660  133.7019  156.7807 H   0  0  0  0  0  0  0  0  0  0  0  0  # atno 11005 bound_to 11000
  145.2615  141.0079  143.3823 LP  0  0  0  0  0  0  0  0  0  0  0  0  # atno 17320 bound_to 7965
  144.9294  139.4316  143.6502 LP  0  0  0  0  0  0  0  0  0  0  0  0  # atno 17321 bound_to 7965
  140.7530  143.3000  151.3104 LP  0  0  0  0  0  0  0  0  0  0  0  0  # atno 17342 bound_to 10162
  139.6500  144.0380  152.2619 LP  0  0  0  0  0  0  0  0  0  0  0  0  # atno 17343 bound_to 10162
  156.0066  130.3852  150.2409 LP  0  0  0  0  0  0  0  0  0  0  0  0  # atno 17370 bound_to 10713
  157.0590  131.0084  151.3228 LP  0  0  0  0  0  0  0  0  0  0  0  0  # atno 17371 bound_to 10713
  140.2397  134.8623  157.3560 LP  0  0  0  0  0  0  0  0  0  0  0  0  # atno 17394 bound_to 11000
  140.1809  134.4491  155.7773 LP  0  0  0  0  0  0  0  0  0  0  0  0  # atno 17395 bound_to 11000

$$$$
