AV-unprocessed.smi:1047|AV-procd|sdf|4570|dock5
  -GOLD-   22720 3 23D 1   1.00000     0.00000
 Structure written by MMmdl.
 56 58  0  0  0  0  0  0  0  0  2 V2000
  150.0323  128.7364  154.0173 C   0  0  0  0  0  0  0  0  0  0  0  0
  150.4143  130.0595  154.6961 C   0  0  0  0  0  0  0  0  0  0  0  0
  149.8951  131.2603  154.0428 N   0  0  0  0  0  0  0  0  0  0  0  0
  148.4425  131.2312  153.8902 C   0  0  0  0  0  0  0  0  0  0  0  0
  147.9103  132.5153  153.2315 C   0  0  0  0  0  0  0  0  0  0  0  0
  148.3309  133.6489  153.9837 O   0  0  0  0  0  0  0  0  0  0  0  0
  149.7483  133.7440  154.1025 C   0  0  1  0  0  0  0  0  0  0  0  0
  150.0783  135.0013  154.9179 C   0  0  0  0  0  0  0  0  0  0  0  0
  149.2550  136.1477  154.4846 N   0  3  0  0  0  0  0  0  0  0  0  0
  149.5182  137.3914  155.2352 C   0  0  0  0  0  0  0  0  0  0  0  0
  150.5947  138.2558  154.5487 C   0  0  1  0  0  0  0  0  0  0  0  0
  150.2742  138.3952  153.1786 O   0  0  0  0  0  0  0  0  0  0  0  0
  150.7117  139.6758  155.1380 C   0  0  0  0  0  0  0  0  0  0  0  0
  151.3581  139.6931  156.4378 N   0  0  0  0  0  0  0  0  0  0  0  0
  151.9472  138.6548  157.0614 C   0  0  0  0  0  0  0  0  0  0  0  0
  152.4789  138.8856  158.2580 N   0  0  0  0  0  0  0  0  0  0  0  0
  152.2097  140.2328  158.4286 C   0  0  0  0  0  0  0  0  0  0  0  0
  152.5117  141.0996  159.5014 C   0  0  0  0  0  0  0  0  0  0  0  0
  152.1299  142.4596  159.4641 C   0  0  0  0  0  0  0  0  0  0  0  0
  152.4775  143.3562  160.6397 C   0  0  0  0  0  0  0  0  0  0  0  0
  151.4332  142.9713  158.3400 C   0  0  0  0  0  0  0  0  0  0  0  0
  151.0122  144.4289  158.2786 C   0  0  0  0  0  0  0  0  0  0  0  0
  151.1252  142.1198  157.2586 C   0  0  0  0  0  0  0  0  0  0  0  0
  151.5109  140.7683  157.3074 C   0  0  0  0  0  0  0  0  0  0  0  0
  150.2704  132.4615  154.7804 C   0  0  0  0  0  0  0  0  0  0  0  0
  150.5360  127.8997  154.5014 H   0  0  0  0  0  0  0  0  0  0  0  0
  150.3238  128.7341  152.9667 H   0  0  0  0  0  0  0  0  0  0  0  0
  148.9612  128.5431  154.0722 H   0  0  0  0  0  0  0  0  0  0  0  0
  150.0975  130.0374  155.7398 H   0  0  0  0  0  0  0  0  0  0  0  0
  151.5037  130.1125  154.7153 H   0  0  0  0  0  0  0  0  0  0  0  0
  148.1418  130.3782  153.2825 H   0  0  0  0  0  0  0  0  0  0  0  0
  147.9697  131.1031  154.8653 H   0  0  0  0  0  0  0  0  0  0  0  0
  148.2678  132.5991  152.2041 H   0  0  0  0  0  0  0  0  0  0  0  0
  146.8212  132.4974  153.1911 H   0  0  0  0  0  0  0  0  0  0  0  0
  150.1908  133.8324  153.1082 H   0  0  0  0  0  0  0  0  0  0  0  0
  149.9206  134.8144  155.9810 H   0  0  0  0  0  0  0  0  0  0  0  0
  151.1303  135.2595  154.7888 H   0  0  0  0  0  0  0  0  0  0  0  0
  149.4277  136.3180  153.5041 H   0  0  0  0  0  0  0  0  0  0  0  0
  148.5930  137.9577  155.3524 H   0  0  0  0  0  0  0  0  0  0  0  0
  149.8448  137.1052  156.2351 H   0  0  0  0  0  0  0  0  0  0  0  0
  151.5647  137.7618  154.6223 H   0  0  0  0  0  0  0  0  0  0  0  0
  149.9668  137.5654  152.8480 H   0  0  0  0  0  0  0  0  0  0  0  0
  151.2859  140.3167  154.4669 H   0  0  0  0  0  0  0  0  0  0  0  0
  149.7258  140.1329  155.2338 H   0  0  0  0  0  0  0  0  0  0  0  0
  151.9839  137.6728  156.6127 H   0  0  0  0  0  0  0  0  0  0  0  0
  153.0424  140.7098  160.3577 H   0  0  0  0  0  0  0  0  0  0  0  0
  153.0826  144.2016  160.3109 H   0  0  0  0  0  0  0  0  0  0  0  0
  153.0442  142.8161  161.3989 H   0  0  0  0  0  0  0  0  0  0  0  0
  151.5710  143.7400  161.1085 H   0  0  0  0  0  0  0  0  0  0  0  0
  150.4609  144.6460  157.3632 H   0  0  0  0  0  0  0  0  0  0  0  0
  151.8868  145.0791  158.3051 H   0  0  0  0  0  0  0  0  0  0  0  0
  150.3689  144.6781  159.1227 H   0  0  0  0  0  0  0  0  0  0  0  0
  150.5959  142.4979  156.3966 H   0  0  0  0  0  0  0  0  0  0  0  0
  149.8828  132.4046  155.7992 H   0  0  0  0  0  0  0  0  0  0  0  0
  151.3566  132.5158  154.8643 H   0  0  0  0  0  0  0  0  0  0  0  0
  148.2827  135.9013  154.6043 H   0  0  0  0  0  0  0  0  0  0  0  0
  1  2  1  0  0  0  0
  1 26  1  0  0  0  0
  1 27  1  0  0  0  0
  1 28  1  0  0  0  0
  2  3  1  0  0  0  0
  2 29  1  0  0  0  0
  2 30  1  0  0  0  0
  3 25  1  0  0  0  0
  3  4  1  0  0  0  0
  4  5  1  0  0  0  0
  4 31  1  0  0  0  0
  4 32  1  0  0  0  0
  5  6  1  0  0  0  0
  5 33  1  0  0  0  0
  5 34  1  0  0  0  0
  6  7  1  0  0  0  0
  7  8  1  0  0  0  0
  7 25  1  0  0  0  0
  7 35  1  0  0  0  0
  8  9  1  0  0  0  0
  8 36  1  0  0  0  0
  8 37  1  0  0  0  0
  9 10  1  0  0  0  0
  9 38  1  0  0  0  0
  9 56  1  0  0  0  0
 10 11  1  0  0  0  0
 10 39  1  0  0  0  0
 10 40  1  0  0  0  0
 11 12  1  0  0  0  0
 11 13  1  0  0  0  0
 11 41  1  0  0  0  0
 12 42  1  0  0  0  0
 13 14  1  0  0  0  0
 13 43  1  0  0  0  0
 13 44  1  0  0  0  0
 14 24  1  0  0  0  0
 14 15  1  0  0  0  0
 15 16  2  0  0  0  0
 15 45  1  0  0  0  0
 16 17  1  0  0  0  0
 17 24  2  0  0  0  0
 17 18  1  0  0  0  0
 18 19  2  0  0  0  0
 18 46  1  0  0  0  0
 19 20  1  0  0  0  0
 19 21  1  0  0  0  0
 20 47  1  0  0  0  0
 20 48  1  0  0  0  0
 20 49  1  0  0  0  0
 21 22  1  0  0  0  0
 21 23  2  0  0  0  0
 22 50  1  0  0  0  0
 22 51  1  0  0  0  0
 22 52  1  0  0  0  0
 23 24  1  0  0  0  0
 23 53  1  0  0  0  0
 25 54  1  0  0  0  0
 25 55  1  0  0  0  0
M  CHG  1   9   1
M  END
> <s_m_source_file>
AV-unprocessed.smi

> <i_m_source_file_index>
1047

> <i_lp_mmshare_version>
43012

> <i_f3d_flags>
0

> <s_epik_input>
W0NIM11bQ0gyXU4xW0NIMl1bQ0gyXU9bQ0BIXShbQ0gyXTEpW0NIMl1bTkhdW0NIMl1bQ0BIXShbT0hdKVtDSDJdbihbY0hdbjIpYyhjMjMpW2NIXWMoW0NIM10pYyhbY0hdMylbQ0gzXQ==

> <s_epik_cmdline>
J2VwaWtfcHl0aG9uJywgJy1waCcsICc3LjAnLCAnLXRuJywgJzgnLCAnLW1hJywgJzIwMCcsICctbWV0YWxfYmluZGluZycsICctaW1hZScsICc8aW5maWxlLm1hZT4nLCAnLW9tYWUnLCAnPG91dGZpbGUubWFlPic=

> <r_epik_Ionization_Penalty>
0.692425

> <r_epik_Ionization_Penalty_Charging>
0.0243549

> <r_epik_Ionization_Penalty_Neutral>
0.66807

> <r_epik_State_Penalty>
0.592789

> <r_epik_Charging_Adjusted_Penalty>
0.617144

> <i_epik_Tot_Q>
1

> <i_epik_Tot_abs_Q>
1

> <r_epik_Metal_State_Penalty>
0.508021

> <b_epik_Metal_Only>
0

> <s_lp_Force_Field>
OPLS_2005

> <r_lp_Energy>
31.2277

> <b_lp_Chiralities_Consistent>
1

> <s_lp_Variant>
AV-unprocessed.smi:1047-11

> <Gold.Version>
5.8.1

> <Gold.Id.Protein>
6NUR|6NUR_protein|mol2

> <Gold.PLP.Fitness>
56.3058

> <Gold.PLP.PLP>
-48.2209

> <Gold.PLP.part.hbond>
-3.7720

> <Gold.PLP.part.metal>
0.0000

> <Gold.PLP.part.buried>
-3.5391

> <Gold.PLP.part.nonpolar>
-40.3881

> <Gold.PLP.part.repulsive>
0.1867

> <Gold.PLP.ligand.clash>
0.0000

> <Gold.PLP.ligand.torsion>
0.5463

> <Gold.PLP.Chemscore.Hbond>
3.0000

> <Gold.PLP.Chemscore.CHOScore>
0.0000

> <Gold.PLP.Chemscore.Metal>
0.0000

> <Gold.Chemscore.Hbonds>
donor molecule, donor type, donor heavy atom, donor atom, acceptor molecule, acceptor atom, score
      L1  H     9    38       P1  7948  2.00
      L1  H    12    42       P1  7948  0.90

> <Gold.PLP.Chemscore.Internal.Correction>
0.1775

> <Gold.Rescore>
     Score         DG    S(hbond)    S(metal)    S(lipo)     H(rot)  DE(clash)    DE(int)     intcor
     19.26     -19.83       1.95        0.00     124.11       2.60       0.01       0.57       ----

> <Gold.Chemscore.Fitness>
19.2611

> <Gold.Chemscore.DG>
-19.8338

> <Gold.Chemscore.ZeroCoef>
-5.4800

> <Gold.Chemscore.Hbond>
1.9465

> <Gold.Chemscore.Metal>
0.0000

> <Gold.Chemscore.Lipo>
124.1121

> <Gold.Chemscore.Internal_Hbond>
0.0000

> <Gold.Chemscore.DEClash>
0.0060

> <Gold.Chemscore.DEInternal>
0.5667

> <Gold.Chemscore.Rot>
2.6049

> <Gold.Chemscore.Internal.Correction>
   9.000000E+99

> <Gold.Chemscore.Hbonds>
donor molecule, donor type, donor heavy atom, donor atom, acceptor molecule, acceptor atom, score
      L1  H     9    38       P1  7948  0.68
      L1  H    12    42       P1  7948  0.18

> <Gold.Chemscore.Hbond.Weighted>
-6.5012

> <Gold.Chemscore.Metal.Weighted>
-0.0000

> <Gold.Chemscore.Lipo.Weighted>
-14.5211

> <Gold.Chemscore.Internal_Hbond.Weighted>
0.0000

> <Gold.Chemscore.DEClash.Weighted>
0.0060

> <Gold.Chemscore.DEInternal.Weighted>
0.5667

> <Gold.Chemscore.Rot.Weighted>
6.6685

> <Gold.Chemscore.Internal.Correction.Weighted>
   9.000000E+99

> <Gold.Protein.RotatedTorsions>
[ 6907 6896 6895 6894 ] final   -8.84 input  -60.11 | X-H torsion
[ 7974 7965 7964 7962 ] final -102.50 input  175.53 | X-H torsion
[ 8008 7997 7996 7995 ] final  -43.69 input   59.86 | X-H torsion
[ 10167 10162 10161 10158 ] final  143.73 input  -65.29 | X-H torsion
[ 10718 10713 10712 10709 ] final    5.74 input   66.30 | X-H torsion
[ 10763 10752 10751 10750 ] final -169.15 input  -60.55 | X-H torsion
[ 11005 11000 10999 10996 ] final   24.22 input  -57.11 | X-H torsion

> <Gold.Protein.ActiveResidues>
 VAL166  LYS551  ARG553  GLY616  TRP617  ASP618  TYR619  PRO620  LYS621  CYS622 
 ASP623  PHE694  ASN695  SER759  ASP760  ASP761  ALA762  ILE779  LEU786  VAL792 
 PHE793  MET794  SER795  GLU796  ALA797  LYS798  CYS799  TRP800  GLU811  SER814 

> <Gold.Protein.RotatedAtoms>
  151.4272  135.1005  159.9631 H   0  0  0  0  0  0  0  0  0  0  0  0  # atno 6907 bound_to 6896
  152.4968  133.8651  159.7280 H   0  0  0  0  0  0  0  0  0  0  0  0  # atno 6908 bound_to 6896
  150.9181  133.6857  159.2866 H   0  0  0  0  0  0  0  0  0  0  0  0  # atno 6909 bound_to 6896
  145.2680  140.9290  143.3003 H   0  0  0  0  0  0  0  0  0  0  0  0  # atno 7974 bound_to 7965
  154.3997  140.1441  156.3560 H   0  0  0  0  0  0  0  0  0  0  0  0  # atno 8008 bound_to 7997
  155.8225  140.3469  155.5502 H   0  0  0  0  0  0  0  0  0  0  0  0  # atno 8009 bound_to 7997
  155.8273  140.0907  157.1804 H   0  0  0  0  0  0  0  0  0  0  0  0  # atno 8010 bound_to 7997
  139.4963  144.6020  151.6460 H   0  0  0  0  0  0  0  0  0  0  0  0  # atno 10167 bound_to 10162
  156.9119  130.5759  149.5647 H   0  0  0  0  0  0  0  0  0  0  0  0  # atno 10718 bound_to 10713
  154.6553  135.2917  154.9935 H   0  0  0  0  0  0  0  0  0  0  0  0  # atno 10763 bound_to 10752
  154.1013  135.6576  153.4873 H   0  0  0  0  0  0  0  0  0  0  0  0  # atno 10764 bound_to 10752
  153.0399  135.5243  154.7480 H   0  0  0  0  0  0  0  0  0  0  0  0  # atno 10765 bound_to 10752
  140.3611  134.2125  155.7672 H   0  0  0  0  0  0  0  0  0  0  0  0  # atno 11005 bound_to 11000
  144.9360  139.4243  143.6472 LP  0  0  0  0  0  0  0  0  0  0  0  0  # atno 17320 bound_to 7965
  146.3255  139.8296  142.8911 LP  0  0  0  0  0  0  0  0  0  0  0  0  # atno 17321 bound_to 7965
  140.5672  144.0169  150.6198 LP  0  0  0  0  0  0  0  0  0  0  0  0  # atno 17342 bound_to 10162
  140.3275  143.3098  152.0721 LP  0  0  0  0  0  0  0  0  0  0  0  0  # atno 17343 bound_to 10162
  156.0532  130.5598  150.9034 LP  0  0  0  0  0  0  0  0  0  0  0  0  # atno 17370 bound_to 10713
  157.5962  131.0943  150.9037 LP  0  0  0  0  0  0  0  0  0  0  0  0  # atno 17371 bound_to 10713
  141.1984  133.8037  157.0585 LP  0  0  0  0  0  0  0  0  0  0  0  0  # atno 17394 bound_to 11000
  140.0626  134.9746  157.1331 LP  0  0  0  0  0  0  0  0  0  0  0  0  # atno 17395 bound_to 11000

$$$$
