AV-unprocessed.smi:1413|AV-procd|sdf|5751|dock3
  -GOLD-   22720 5383D 1   1.00000     0.00000
 Structure written by MMmdl.
 53 55  0  0  0  0  0  0  0  0  1 V2000
  151.6812  144.8705  158.6984 C   0  0  0  0  0  0  0  0  0  0  0  0
  152.2605  143.4731  158.4548 C   0  0  2  0  0  0  0  0  0  0  0  0
  151.2567  142.5491  157.7392 C   0  0  0  0  0  0  0  0  0  0  0  0
  151.7928  141.1951  157.6355 N   0  0  0  0  0  0  0  0  0  0  0  0
  151.0933  140.3307  156.7662 C   0  0  0  0  0  0  0  0  0  0  0  0
  151.6868  139.9119  155.5522 C   0  0  0  0  0  0  0  0  0  0  0  0
  150.9748  139.0475  154.6984 C   0  0  0  0  0  0  0  0  0  0  0  0
  149.6851  138.6149  155.0837 C   0  0  0  0  0  0  0  0  0  0  0  0
  148.8635  137.7614  154.3000 N   0  0  0  0  0  0  0  0  0  0  0  0
  147.5336  137.5864  154.3796 C   0  0  0  0  0  0  0  0  0  0  0  0
  146.7876  138.1691  155.1662 O   0  0  0  0  0  0  0  0  0  0  0  0
  147.1094  136.6977  153.4695 N   0  0  0  0  0  0  0  0  0  0  0  0
  145.7219  136.2958  153.2373 C   0  0  1  0  0  0  0  0  0  0  0  0
  144.8377  137.5491  153.1654 C   0  0  0  0  0  0  0  0  0  0  0  0
  145.5971  135.4330  151.9640 C   0  0  2  0  0  0  0  0  0  0  0  0
  144.1697  135.0219  151.5728 C   0  0  0  0  0  0  0  0  0  0  0  0
  144.3195  133.6044  151.0363 C   0  0  0  0  0  0  0  0  0  0  0  0
  145.8244  133.3484  151.0701 C   0  0  0  0  0  0  0  0  0  0  0  0
  146.2859  134.1980  152.1067 O   0  0  0  0  0  0  0  0  0  0  0  0
  149.1719  139.0960  156.3043 C   0  0  0  0  0  0  0  0  0  0  0  0
  149.8527  139.9205  157.1273 N   0  0  0  0  0  0  0  0  0  0  0  0
  152.2511  140.6561  158.9140 C   0  0  0  0  0  0  0  0  0  0  0  0
  153.2316  141.6335  159.5886 C   0  0  2  0  0  0  0  0  0  0  0  0
  153.6494  141.1592  160.9843 C   0  0  0  0  0  0  0  0  0  0  0  0
  152.6056  142.9071  159.7165 O   0  0  0  0  0  0  0  0  0  0  0  0
  151.4095  145.3517  157.7586 H   0  0  0  0  0  0  0  0  0  0  0  0
  152.4057  145.5105  159.2025 H   0  0  0  0  0  0  0  0  0  0  0  0
  150.7877  144.8235  159.3216 H   0  0  0  0  0  0  0  0  0  0  0  0
  153.1630  143.5731  157.8490 H   0  0  0  0  0  0  0  0  0  0  0  0
  150.3187  142.5112  158.2949 H   0  0  0  0  0  0  0  0  0  0  0  0
  151.0262  142.9640  156.7588 H   0  0  0  0  0  0  0  0  0  0  0  0
  152.6792  140.2332  155.2727 H   0  0  0  0  0  0  0  0  0  0  0  0
  151.4246  138.7439  153.7658 H   0  0  0  0  0  0  0  0  0  0  0  0
  149.3308  137.2822  153.5442 H   0  0  0  0  0  0  0  0  0  0  0  0
  147.8026  136.2670  152.8753 H   0  0  0  0  0  0  0  0  0  0  0  0
  145.3599  135.6999  154.0768 H   0  0  0  0  0  0  0  0  0  0  0  0
  143.7901  137.2820  153.0247 H   0  0  0  0  0  0  0  0  0  0  0  0
  145.1299  138.1962  152.3375 H   0  0  0  0  0  0  0  0  0  0  0  0
  144.9071  138.1325  154.0840 H   0  0  0  0  0  0  0  0  0  0  0  0
  146.0431  135.9659  151.1217 H   0  0  0  0  0  0  0  0  0  0  0  0
  143.4891  135.0216  152.4238 H   0  0  0  0  0  0  0  0  0  0  0  0
  143.7569  135.7019  150.8271 H   0  0  0  0  0  0  0  0  0  0  0  0
  143.8057  132.9044  151.6963 H   0  0  0  0  0  0  0  0  0  0  0  0
  143.9059  133.4865  150.0343 H   0  0  0  0  0  0  0  0  0  0  0  0
  146.0703  132.3045  151.2655 H   0  0  0  0  0  0  0  0  0  0  0  0
  146.2894  133.6400  150.1271 H   0  0  0  0  0  0  0  0  0  0  0  0
  148.1863  138.8053  156.6375 H   0  0  0  0  0  0  0  0  0  0  0  0
  151.3900  140.4800  159.5603 H   0  0  0  0  0  0  0  0  0  0  0  0
  152.7452  139.6959  158.7592 H   0  0  0  0  0  0  0  0  0  0  0  0
  154.1288  141.7358  158.9752 H   0  0  0  0  0  0  0  0  0  0  0  0
  154.1438  140.1886  160.9364 H   0  0  0  0  0  0  0  0  0  0  0  0
  152.7866  141.0636  161.6439 H   0  0  0  0  0  0  0  0  0  0  0  0
  154.3436  141.8635  161.4434 H   0  0  0  0  0  0  0  0  0  0  0  0
  1  2  1  0  0  0  0
  1 26  1  0  0  0  0
  1 27  1  0  0  0  0
  1 28  1  0  0  0  0
  2 25  1  0  0  0  0
  2  3  1  0  0  0  0
  2 29  1  0  0  0  0
  3  4  1  0  0  0  0
  3 30  1  0  0  0  0
  3 31  1  0  0  0  0
  4  5  1  0  0  0  0
  4 22  1  0  0  0  0
  5 21  1  0  0  0  0
  5  6  2  0  0  0  0
  6  7  1  0  0  0  0
  6 32  1  0  0  0  0
  7  8  2  0  0  0  0
  7 33  1  0  0  0  0
  8  9  1  0  0  0  0
  8 20  1  0  0  0  0
  9 10  1  0  0  0  0
  9 34  1  0  0  0  0
 10 11  2  0  0  0  0
 10 12  1  0  0  0  0
 12 13  1  0  0  0  0
 12 35  1  0  0  0  0
 13 14  1  0  0  0  0
 13 15  1  0  0  0  0
 13 36  1  0  0  0  0
 14 37  1  0  0  0  0
 14 38  1  0  0  0  0
 14 39  1  0  0  0  0
 15 19  1  0  0  0  0
 15 16  1  0  0  0  0
 15 40  1  0  0  0  0
 16 17  1  0  0  0  0
 16 41  1  0  0  0  0
 16 42  1  0  0  0  0
 17 18  1  0  0  0  0
 17 43  1  0  0  0  0
 17 44  1  0  0  0  0
 18 19  1  0  0  0  0
 18 45  1  0  0  0  0
 18 46  1  0  0  0  0
 20 21  2  0  0  0  0
 20 47  1  0  0  0  0
 22 23  1  0  0  0  0
 22 48  1  0  0  0  0
 22 49  1  0  0  0  0
 23 24  1  0  0  0  0
 23 25  1  0  0  0  0
 23 50  1  0  0  0  0
 24 51  1  0  0  0  0
 24 52  1  0  0  0  0
 24 53  1  0  0  0  0
M  END
> <s_m_source_file>
AV-unprocessed.smi

> <i_m_source_file_index>
1413

> <i_lp_mmshare_version>
43012

> <i_f3d_flags>
0

> <s_epik_input>
W0NIM11bQ0BASF0xW0NIMl1OKFtDSDJdW0NASF0oTzEpW0NIM10pYzJbY0hdW2NIXWMoW2NIXW4yKVtOSF1DKD1PKVtOSF1bQ0BIXShbQ0gzXSlbQ0BASF0zW0NIMl1bQ0gyXVtDSDJdTzM=

> <s_epik_cmdline>
J2VwaWtfcHl0aG9uJywgJy1waCcsICc3LjAnLCAnLXRuJywgJzgnLCAnLW1hJywgJzIwMCcsICctbWV0YWxfYmluZGluZycsICctaW1hZScsICc8aW5maWxlLm1hZT4nLCAnLW9tYWUnLCAnPG91dGZpbGUubWFlPic=

> <r_lp_tautomer_probability>
1

> <r_epik_Ionization_Penalty>
0.00271172

> <r_epik_Ionization_Penalty_Charging>
0

> <r_epik_Ionization_Penalty_Neutral>
0.00271172

> <r_epik_State_Penalty>
0.00186503

> <r_epik_Charging_Adjusted_Penalty>
0.00186503

> <i_epik_Tot_Q>
0

> <i_epik_Tot_abs_Q>
0

> <r_epik_Metal_State_Penalty>
-0

> <b_epik_Metal_Only>
0

> <s_lp_Force_Field>
OPLS_2005

> <r_lp_Energy>
35.2684

> <b_lp_Chiralities_Consistent>
1

> <s_lp_Variant>
AV-unprocessed.smi:1413-4

> <Gold.Version>
5.8.1

> <Gold.Id.Protein>
6NUR|6NUR_protein|mol2

> <Gold.PLP.Fitness>
47.2681

> <Gold.PLP.PLP>
-42.0977

> <Gold.PLP.part.hbond>
-1.9353

> <Gold.PLP.part.metal>
0.0000

> <Gold.PLP.part.buried>
-5.8365

> <Gold.PLP.part.nonpolar>
-35.0492

> <Gold.PLP.part.repulsive>
0.1633

> <Gold.PLP.ligand.clash>
0.0000

> <Gold.PLP.ligand.torsion>
0.3860

> <Gold.PLP.Chemscore.Hbond>
1.8640

> <Gold.PLP.Chemscore.CHOScore>
0.0000

> <Gold.PLP.Chemscore.Metal>
0.0000

> <Gold.Chemscore.Hbonds>
donor molecule, donor type, donor heavy atom, donor atom, acceptor molecule, acceptor atom, score
      L1  H     9    34       P1  7948  0.86
      L1  H    12    35       P1  7948  1.00

> <Gold.PLP.Chemscore.Internal.Correction>
0.3503

> <Gold.Rescore>
     Score         DG    S(hbond)    S(metal)    S(lipo)     H(rot)  DE(clash)    DE(int)     intcor
     18.28     -21.10       1.86        0.00     109.81       1.35       0.04       2.78       ----

> <Gold.Chemscore.Fitness>
18.2781

> <Gold.Chemscore.DG>
-21.0994

> <Gold.Chemscore.ZeroCoef>
-5.4800

> <Gold.Chemscore.Hbond>
1.8623

> <Gold.Chemscore.Metal>
0.0000

> <Gold.Chemscore.Lipo>
109.8107

> <Gold.Chemscore.Internal_Hbond>
0.0000

> <Gold.Chemscore.DEClash>
0.0417

> <Gold.Chemscore.DEInternal>
2.7796

> <Gold.Chemscore.Rot>
1.3471

> <Gold.Chemscore.Internal.Correction>
   9.000000E+99

> <Gold.Chemscore.Hbonds>
donor molecule, donor type, donor heavy atom, donor atom, acceptor molecule, acceptor atom, score
      L1  H     9    34       P1  7948  0.80
      L1  H    12    35       P1  7948  0.92

> <Gold.Chemscore.Hbond.Weighted>
-6.2200

> <Gold.Chemscore.Metal.Weighted>
-0.0000

> <Gold.Chemscore.Lipo.Weighted>
-12.8479

> <Gold.Chemscore.Internal_Hbond.Weighted>
0.0000

> <Gold.Chemscore.DEClash.Weighted>
0.0417

> <Gold.Chemscore.DEInternal.Weighted>
2.7796

> <Gold.Chemscore.Rot.Weighted>
3.4485

> <Gold.Chemscore.Internal.Correction.Weighted>
   9.000000E+99

> <Gold.Protein.RotatedTorsions>
[ 6907 6896 6895 6894 ] final -138.29 input  -60.11 | X-H torsion
[ 7974 7965 7964 7962 ] final   75.63 input  175.53 | X-H torsion
[ 8008 7997 7996 7995 ] final  132.29 input   59.86 | X-H torsion
[ 10167 10162 10161 10158 ] final  175.91 input  -65.29 | X-H torsion
[ 10718 10713 10712 10709 ] final  -77.82 input   66.30 | X-H torsion
[ 10763 10752 10751 10750 ] final  125.80 input  -60.55 | X-H torsion
[ 11005 11000 10999 10996 ] final   95.50 input  -57.11 | X-H torsion

> <Gold.Protein.ActiveResidues>
 VAL166  LYS551  ARG553  GLY616  TRP617  ASP618  TYR619  PRO620  LYS621  CYS622 
 ASP623  PHE694  ASN695  SER759  ASP760  ASP761  ALA762  ILE779  LEU786  VAL792 
 PHE793  MET794  SER795  GLU796  ALA797  LYS798  CYS799  TRP800  GLU811  SER814 

> <Gold.Protein.RotatedAtoms>
  151.0332  133.5772  159.2658 H   0  0  0  0  0  0  0  0  0  0  0  0  # atno 6907 bound_to 6896
  151.2846  135.0723  159.9192 H   0  0  0  0  0  0  0  0  0  0  0  0  # atno 6908 bound_to 6896
  152.5349  134.0040  159.7962 H   0  0  0  0  0  0  0  0  0  0  0  0  # atno 6909 bound_to 6896
  145.7131  139.2621  143.1639 H   0  0  0  0  0  0  0  0  0  0  0  0  # atno 7974 bound_to 7965
  156.2981  140.2550  156.3065 H   0  0  0  0  0  0  0  0  0  0  0  0  # atno 8008 bound_to 7997
  154.9367  140.0397  157.2094 H   0  0  0  0  0  0  0  0  0  0  0  0  # atno 8009 bound_to 7997
  154.8166  140.2853  155.5820 H   0  0  0  0  0  0  0  0  0  0  0  0  # atno 8010 bound_to 7997
  139.5194  144.2977  152.0407 H   0  0  0  0  0  0  0  0  0  0  0  0  # atno 10167 bound_to 10162
  156.0134  130.4501  150.3402 H   0  0  0  0  0  0  0  0  0  0  0  0  # atno 10718 bound_to 10713
  153.6832  135.3311  155.3183 H   0  0  0  0  0  0  0  0  0  0  0  0  # atno 10763 bound_to 10752
  154.8460  135.4414  154.1585 H   0  0  0  0  0  0  0  0  0  0  0  0  # atno 10764 bound_to 10752
  153.2607  135.6991  153.7659 H   0  0  0  0  0  0  0  0  0  0  0  0  # atno 10765 bound_to 10752
  139.8788  134.8902  156.4020 H   0  0  0  0  0  0  0  0  0  0  0  0  # atno 11005 bound_to 11000
  146.0694  140.7885  142.9695 LP  0  0  0  0  0  0  0  0  0  0  0  0  # atno 17320 bound_to 7965
  144.6936  140.3319  143.7214 LP  0  0  0  0  0  0  0  0  0  0  0  0  # atno 17321 bound_to 7965
  140.2425  144.4254  150.6254 LP  0  0  0  0  0  0  0  0  0  0  0  0  # atno 17342 bound_to 10162
  140.6280  143.2184  151.6555 LP  0  0  0  0  0  0  0  0  0  0  0  0  # atno 17343 bound_to 10162
  157.1498  131.0318  151.2890 LP  0  0  0  0  0  0  0  0  0  0  0  0  # atno 17370 bound_to 10713
  157.4402  130.7540  149.7063 LP  0  0  0  0  0  0  0  0  0  0  0  0  # atno 17371 bound_to 10713
  140.9260  133.7612  155.9965 LP  0  0  0  0  0  0  0  0  0  0  0  0  # atno 17394 bound_to 11000
  140.8385  134.3094  157.5322 LP  0  0  0  0  0  0  0  0  0  0  0  0  # atno 17395 bound_to 11000

$$$$
