AV-unprocessed.smi:1570|AV-procd|sdf|6319|dock3
  -GOLD-   22720 6523D 1   1.00000     0.00000
 Structure written by MMmdl.
 52 54  0  0  0  0  0  0  0  0  2 V2000
  149.6352  142.4448  158.1423 C   0  0  0  0  0  0  0  0  0  0  0  0
  150.4955  142.3415  156.8765 C   0  0  0  0  0  0  0  0  0  0  0  0
  151.1537  141.0404  156.7911 N   0  0  0  0  0  0  0  0  0  0  0  0
  151.0577  140.1530  155.7737 C   0  0  0  0  0  0  0  0  0  0  0  0
  150.3834  140.2902  154.7528 O   0  0  0  0  0  0  0  0  0  0  0  0
  151.8491  139.0927  156.0629 N   0  0  0  0  0  0  0  0  0  0  0  0
  152.0452  137.9054  155.2318 C   0  0  0  0  0  0  0  0  0  0  0  0
  150.7046  137.2450  154.8495 C   0  0  1  0  0  0  0  0  0  0  0  0
  150.3681  137.6553  153.5385 O   0  0  0  0  0  0  0  0  0  0  0  0
  150.8052  135.7060  154.8462 C   0  0  0  0  0  0  0  0  0  0  0  0
  149.5392  135.0573  154.4184 N   0  3  1  0  0  0  0  0  0  0  0  0
  149.6920  133.6003  154.1957 C   0  0  0  0  0  0  0  0  0  0  0  0
  148.3711  132.9897  153.6900 C   0  0  1  0  0  0  0  0  0  0  0  0
  148.4637  131.4691  153.5232 C   0  0  0  0  0  0  0  0  0  0  0  0
  147.3395  133.2704  154.6300 O   0  0  0  0  0  0  0  0  0  0  0  0
  147.1142  134.6660  154.7963 C   0  0  1  0  0  0  0  0  0  0  0  0
  145.9306  134.8486  155.7530 C   0  0  0  0  0  0  0  0  0  0  0  0
  148.4004  135.3215  155.3325 C   0  0  0  0  0  0  0  0  0  0  0  0
  152.4821  139.3155  157.2948 C   0  0  0  0  0  0  0  0  0  0  0  0
  153.4028  138.5377  158.0189 C   0  0  0  0  0  0  0  0  0  0  0  0
  153.8665  139.0617  159.2484 C   0  0  0  0  0  0  0  0  0  0  0  0
  153.4145  140.3218  159.7188 C   0  0  0  0  0  0  0  0  0  0  0  0
  152.4897  141.0858  158.9693 C   0  0  0  0  0  0  0  0  0  0  0  0
  152.0440  140.5413  157.7522 C   0  0  0  0  0  0  0  0  0  0  0  0
  149.1458  143.4171  158.2005 H   0  0  0  0  0  0  0  0  0  0  0  0
  150.2394  142.3227  159.0416 H   0  0  0  0  0  0  0  0  0  0  0  0
  148.8571  141.6808  158.1547 H   0  0  0  0  0  0  0  0  0  0  0  0
  149.8793  142.4985  155.9910 H   0  0  0  0  0  0  0  0  0  0  0  0
  151.2419  143.1374  156.8698 H   0  0  0  0  0  0  0  0  0  0  0  0
  152.6413  138.1331  154.3476 H   0  0  0  0  0  0  0  0  0  0  0  0
  152.6459  137.2039  155.8132 H   0  0  0  0  0  0  0  0  0  0  0  0
  149.9225  137.5681  155.5352 H   0  0  0  0  0  0  0  0  0  0  0  0
  149.6740  137.1006  153.2159 H   0  0  0  0  0  0  0  0  0  0  0  0
  151.6207  135.4090  154.1846 H   0  0  0  0  0  0  0  0  0  0  0  0
  151.0724  135.3358  155.8372 H   0  0  0  0  0  0  0  0  0  0  0  0
  150.4817  133.4209  153.4649 H   0  0  0  0  0  0  0  0  0  0  0  0
  149.9999  133.1206  155.1265 H   0  0  0  0  0  0  0  0  0  0  0  0
  148.1075  133.4293  152.7263 H   0  0  0  0  0  0  0  0  0  0  0  0
  149.2321  131.1994  152.7982 H   0  0  0  0  0  0  0  0  0  0  0  0
  147.5171  131.0571  153.1723 H   0  0  0  0  0  0  0  0  0  0  0  0
  148.7083  130.9822  154.4677 H   0  0  0  0  0  0  0  0  0  0  0  0
  146.8516  135.1053  153.8322 H   0  0  0  0  0  0  0  0  0  0  0  0
  145.7096  135.9050  155.9082 H   0  0  0  0  0  0  0  0  0  0  0  0
  146.1367  134.4029  156.7266 H   0  0  0  0  0  0  0  0  0  0  0  0
  145.0315  134.3772  155.3552 H   0  0  0  0  0  0  0  0  0  0  0  0
  148.6331  134.9319  156.3251 H   0  0  0  0  0  0  0  0  0  0  0  0
  148.2401  136.3935  155.4425 H   0  0  0  0  0  0  0  0  0  0  0  0
  153.7488  137.5813  157.6566 H   0  0  0  0  0  0  0  0  0  0  0  0
  154.5752  138.4963  159.8355 H   0  0  0  0  0  0  0  0  0  0  0  0
  153.7825  140.7035  160.6597 H   0  0  0  0  0  0  0  0  0  0  0  0
  152.1453  142.0472  159.3204 H   0  0  0  0  0  0  0  0  0  0  0  0
  149.3025  135.4580  153.5213 H   0  0  0  0  0  0  0  0  0  0  0  0
  1  2  1  0  0  0  0
  1 25  1  0  0  0  0
  1 26  1  0  0  0  0
  1 27  1  0  0  0  0
  2  3  1  0  0  0  0
  2 28  1  0  0  0  0
  2 29  1  0  0  0  0
  3 24  1  0  0  0  0
  3  4  1  0  0  0  0
  4  5  2  0  0  0  0
  4  6  1  0  0  0  0
  6  7  1  0  0  0  0
  6 19  1  0  0  0  0
  7  8  1  0  0  0  0
  7 30  1  0  0  0  0
  7 31  1  0  0  0  0
  8  9  1  0  0  0  0
  8 10  1  0  0  0  0
  8 32  1  0  0  0  0
  9 33  1  0  0  0  0
 10 11  1  0  0  0  0
 10 34  1  0  0  0  0
 10 35  1  0  0  0  0
 11 18  1  0  0  0  0
 11 12  1  0  0  0  0
 11 52  1  0  0  0  0
 12 13  1  0  0  0  0
 12 36  1  0  0  0  0
 12 37  1  0  0  0  0
 13 14  1  0  0  0  0
 13 15  1  0  0  0  0
 13 38  1  0  0  0  0
 14 39  1  0  0  0  0
 14 40  1  0  0  0  0
 14 41  1  0  0  0  0
 15 16  1  0  0  0  0
 16 17  1  0  0  0  0
 16 18  1  0  0  0  0
 16 42  1  0  0  0  0
 17 43  1  0  0  0  0
 17 44  1  0  0  0  0
 17 45  1  0  0  0  0
 18 46  1  0  0  0  0
 18 47  1  0  0  0  0
 19 24  2  0  0  0  0
 19 20  1  0  0  0  0
 20 21  2  0  0  0  0
 20 48  1  0  0  0  0
 21 22  1  0  0  0  0
 21 49  1  0  0  0  0
 22 23  2  0  0  0  0
 22 50  1  0  0  0  0
 23 24  1  0  0  0  0
 23 51  1  0  0  0  0
M  CHG  1  11   1
M  END
> <s_m_source_file>
AV-unprocessed.smi

> <i_m_source_file_index>
1570

> <i_lp_mmshare_version>
43012

> <i_f3d_flags>
0

> <s_epik_input>
W2NIXTFbY0hdW2NIXVtjSF1jKGMxMiluKFtDSDJdW0NIM10pYyg9TyluMltDSDJdW0NASF0oW09IXSlbQ0gyXU4zW0NIMl1bQ0BASF0oW0NIM10pT1tDQEBIXShbQ0gzXSlbQ0gyXTM=

> <s_epik_cmdline>
J2VwaWtfcHl0aG9uJywgJy1waCcsICc3LjAnLCAnLXRuJywgJzgnLCAnLW1hJywgJzIwMCcsICctbWV0YWxfYmluZGluZycsICctaW1hZScsICc8aW5maWxlLm1hZT4nLCAnLW9tYWUnLCAnPG91dGZpbGUubWFlPic=

> <r_epik_Ionization_Penalty>
0.706332

> <r_epik_Ionization_Penalty_Charging>
0.706318

> <r_epik_Ionization_Penalty_Neutral>
1.42224e-05

> <r_epik_State_Penalty>
0.729493

> <r_epik_Charging_Adjusted_Penalty>
1.43581

> <i_epik_Tot_Q>
1

> <i_epik_Tot_abs_Q>
1

> <r_epik_Metal_State_Penalty>
0.729493

> <b_epik_Metal_Only>
0

> <s_lp_Force_Field>
OPLS_2005

> <r_lp_Energy>
52.3817

> <b_lp_Chiralities_Consistent>
1

> <s_lp_Variant>
AV-unprocessed.smi:1570-8

> <Gold.Version>
5.8.1

> <Gold.Id.Protein>
6NUR|6NUR_protein|mol2

> <Gold.PLP.Fitness>
48.9228

> <Gold.PLP.PLP>
-38.0536

> <Gold.PLP.part.hbond>
-4.0000

> <Gold.PLP.part.metal>
0.0000

> <Gold.PLP.part.buried>
-2.3000

> <Gold.PLP.part.nonpolar>
-31.2781

> <Gold.PLP.part.repulsive>
0.1631

> <Gold.PLP.ligand.clash>
0.0000

> <Gold.PLP.ligand.torsion>
0.6217

> <Gold.PLP.Chemscore.Hbond>
4.0000

> <Gold.PLP.Chemscore.CHOScore>
0.0000

> <Gold.PLP.Chemscore.Metal>
0.0000

> <Gold.Chemscore.Hbonds>
donor molecule, donor type, donor heavy atom, donor atom, acceptor molecule, acceptor atom, score
      L1  H     9    33       P1  7948  0.93
      L1  H    11    52       P1  7948  2.00
      P1  H  7989  7998       L1     5  1.00

> <Gold.PLP.Chemscore.Internal.Correction>
0.1126

> <Gold.Rescore>
     Score         DG    S(hbond)    S(metal)    S(lipo)     H(rot)  DE(clash)    DE(int)     intcor
     16.64     -18.24       2.52        0.00      83.68       2.13       0.04       1.56       ----

> <Gold.Chemscore.Fitness>
16.6377

> <Gold.Chemscore.DG>
-18.2362

> <Gold.Chemscore.ZeroCoef>
-5.4800

> <Gold.Chemscore.Hbond>
2.5206

> <Gold.Chemscore.Metal>
0.0000

> <Gold.Chemscore.Lipo>
83.6842

> <Gold.Chemscore.Internal_Hbond>
0.0000

> <Gold.Chemscore.DEClash>
0.0354

> <Gold.Chemscore.DEInternal>
1.5631

> <Gold.Chemscore.Rot>
2.1303

> <Gold.Chemscore.Internal.Correction>
   9.000000E+99

> <Gold.Chemscore.Hbonds>
donor molecule, donor type, donor heavy atom, donor atom, acceptor molecule, acceptor atom, score
      L1  H     9    33       P1  7948  0.55
      L1  H    11    52       P1  7948  0.30
      P1  H  7989  7998       L1     5  0.39

> <Gold.Chemscore.Hbond.Weighted>
-8.4187

> <Gold.Chemscore.Metal.Weighted>
-0.0000

> <Gold.Chemscore.Lipo.Weighted>
-9.7910

> <Gold.Chemscore.Internal_Hbond.Weighted>
0.0000

> <Gold.Chemscore.DEClash.Weighted>
0.0354

> <Gold.Chemscore.DEInternal.Weighted>
1.5631

> <Gold.Chemscore.Rot.Weighted>
5.4535

> <Gold.Chemscore.Internal.Correction.Weighted>
   9.000000E+99

> <Gold.Protein.RotatedTorsions>
[ 6907 6896 6895 6894 ] final   79.01 input  -60.11 | X-H torsion
[ 7974 7965 7964 7962 ] final  125.55 input  175.53 | X-H torsion
[ 8008 7997 7996 7995 ] final  118.85 input   59.86 | X-H torsion
[ 10167 10162 10161 10158 ] final  -53.18 input  -65.29 | X-H torsion
[ 10718 10713 10712 10709 ] final  -37.83 input   66.30 | X-H torsion
[ 10763 10752 10751 10750 ] final   13.44 input  -60.55 | X-H torsion
[ 11005 11000 10999 10996 ] final  -52.76 input  -57.11 | X-H torsion

> <Gold.Protein.ActiveResidues>
 VAL166  LYS551  ARG553  GLY616  TRP617  ASP618  TYR619  PRO620  LYS621  CYS622 
 ASP623  PHE694  ASN695  SER759  ASP760  ASP761  ALA762  ILE779  LEU786  VAL792 
 PHE793  MET794  SER795  GLU796  ALA797  LYS798  CYS799  TRP800  GLU811  SER814 

> <Gold.Protein.RotatedAtoms>
  152.5182  134.3576  159.9273 H   0  0  0  0  0  0  0  0  0  0  0  0  # atno 6907 bound_to 6896
  151.3528  133.3912  159.2689 H   0  0  0  0  0  0  0  0  0  0  0  0  # atno 6908 bound_to 6896
  150.9714  134.9104  159.7848 H   0  0  0  0  0  0  0  0  0  0  0  0  # atno 6909 bound_to 6896
  145.0718  139.3724  143.4954 H   0  0  0  0  0  0  0  0  0  0  0  0  # atno 7974 bound_to 7965
  156.2567  140.2865  156.0900 H   0  0  0  0  0  0  0  0  0  0  0  0  # atno 8008 bound_to 7997
  155.1474  140.0397  157.2830 H   0  0  0  0  0  0  0  0  0  0  0  0  # atno 8009 bound_to 7997
  154.6486  140.2539  155.7246 H   0  0  0  0  0  0  0  0  0  0  0  0  # atno 8010 bound_to 7997
  140.6498  143.2559  151.4755 H   0  0  0  0  0  0  0  0  0  0  0  0  # atno 10167 bound_to 10162
  156.3107  130.4252  149.8054 H   0  0  0  0  0  0  0  0  0  0  0  0  # atno 10718 bound_to 10713
  153.1721  135.6814  153.8593 H   0  0  0  0  0  0  0  0  0  0  0  0  # atno 10763 bound_to 10752
  153.7954  135.3163  155.3385 H   0  0  0  0  0  0  0  0  0  0  0  0  # atno 10764 bound_to 10752
  154.8005  135.4781  154.0356 H   0  0  0  0  0  0  0  0  0  0  0  0  # atno 10765 bound_to 10752
  141.0941  133.6627  156.4071 H   0  0  0  0  0  0  0  0  0  0  0  0  # atno 11005 bound_to 11000
  146.3529  140.0466  142.8639 LP  0  0  0  0  0  0  0  0  0  0  0  0  # atno 17320 bound_to 7965
  145.1284  140.9503  143.4559 LP  0  0  0  0  0  0  0  0  0  0  0  0  # atno 17321 bound_to 7965
  139.5712  144.1924  152.1839 LP  0  0  0  0  0  0  0  0  0  0  0  0  # atno 17342 bound_to 10162
  140.1221  144.5364  150.6856 LP  0  0  0  0  0  0  0  0  0  0  0  0  # atno 17343 bound_to 10162
  156.5398  130.8295  151.3265 LP  0  0  0  0  0  0  0  0  0  0  0  0  # atno 17370 bound_to 10713
  157.7390  130.9824  150.2287 LP  0  0  0  0  0  0  0  0  0  0  0  0  # atno 17371 bound_to 10713
  140.5182  134.6329  157.5309 LP  0  0  0  0  0  0  0  0  0  0  0  0  # atno 17394 bound_to 11000
  139.9773  134.7194  155.9925 LP  0  0  0  0  0  0  0  0  0  0  0  0  # atno 17395 bound_to 11000

$$$$
