AV-unprocessed.smi:1947|AV-procd|sdf|7871|dock4
  -GOLD-   2272010 23D 1   1.00000     0.00000
 Structure written by MMmdl.
 38 39  0  0  0  0  0  0  0  0  2 V2000
  153.9767  141.9780  160.7284 C   0  0  0  0  0  0  0  0  0  0  0  0
  153.3452  143.3448  160.4217 C   0  0  2  0  0  0  0  0  0  0  0  0
  152.6183  143.9301  161.6496 C   0  0  0  0  0  0  0  0  0  0  0  0
  152.0196  145.3130  161.3463 C   0  0  0  0  0  0  0  0  0  0  0  0
  151.0911  145.2639  160.1235 C   0  0  0  0  0  0  0  0  0  0  0  0
  151.8161  144.6834  158.8978 C   0  0  0  0  0  0  0  0  0  0  0  0
  152.4080  143.2883  159.1945 C   0  0  2  0  0  0  0  0  0  0  0  0
  151.3610  142.3657  159.4694 O   0  0  0  0  0  0  0  0  0  0  0  0
  150.3129  142.3519  158.5118 C   0  0  0  0  0  0  0  0  0  0  0  0
  150.9048  141.9841  157.1482 C   0  0  0  0  0  0  0  0  0  0  0  0
  149.8663  142.0174  156.1268 N   0  0  0  0  0  0  0  0  0  0  0  0
  149.9028  141.3617  154.9603 C   0  0  0  0  0  0  0  0  0  0  0  0
  150.8792  140.6634  154.6785 O   0  0  0  0  0  0  0  0  0  0  0  0
  148.8044  141.5542  154.1948 N   0  5  0  0  0  0  0  0  0  0  0  0
  148.2289  140.5149  153.5684 C   0  0  0  0  0  0  0  0  0  0  0  0
  148.4434  139.2432  153.9423 N   0  0  0  0  0  0  0  0  0  0  0  0
  147.7632  138.3213  153.1581 N   0  0  0  0  0  0  0  0  0  0  0  0
  147.0548  138.9243  152.2039 C   0  0  0  0  0  0  0  0  0  0  0  0
  147.1559  140.6720  152.1750 S   0  0  0  0  0  0  0  0  0  0  0  0
  153.2214  141.2417  161.0049 H   0  0  0  0  0  0  0  0  0  0  0  0
  154.6855  142.0507  161.5537 H   0  0  0  0  0  0  0  0  0  0  0  0
  154.5165  141.5921  159.8633 H   0  0  0  0  0  0  0  0  0  0  0  0
  154.1640  144.0223  160.1747 H   0  0  0  0  0  0  0  0  0  0  0  0
  151.8250  143.2526  161.9692 H   0  0  0  0  0  0  0  0  0  0  0  0
  153.3094  144.0101  162.4892 H   0  0  0  0  0  0  0  0  0  0  0  0
  151.4714  145.6793  162.2148 H   0  0  0  0  0  0  0  0  0  0  0  0
  152.8243  146.0266  161.1651 H   0  0  0  0  0  0  0  0  0  0  0  0
  150.2141  144.6570  160.3533 H   0  0  0  0  0  0  0  0  0  0  0  0
  150.7215  146.2644  159.8972 H   0  0  0  0  0  0  0  0  0  0  0  0
  151.1337  144.6466  158.0494 H   0  0  0  0  0  0  0  0  0  0  0  0
  152.6206  145.3588  158.6046 H   0  0  0  0  0  0  0  0  0  0  0  0
  152.9847  142.9442  158.3336 H   0  0  0  0  0  0  0  0  0  0  0  0
  149.5311  141.6402  158.7780 H   0  0  0  0  0  0  0  0  0  0  0  0
  149.8515  143.3392  158.4692 H   0  0  0  0  0  0  0  0  0  0  0  0
  151.6905  142.6926  156.8829 H   0  0  0  0  0  0  0  0  0  0  0  0
  151.3596  140.9929  157.1874 H   0  0  0  0  0  0  0  0  0  0  0  0
  149.0483  142.5751  156.3241 H   0  0  0  0  0  0  0  0  0  0  0  0
  146.4719  138.3365  151.5109 H   0  0  0  0  0  0  0  0  0  0  0  0
  1  2  1  0  0  0  0
  1 20  1  0  0  0  0
  1 21  1  0  0  0  0
  1 22  1  0  0  0  0
  2  7  1  0  0  0  0
  2  3  1  0  0  0  0
  2 23  1  0  0  0  0
  3  4  1  0  0  0  0
  3 24  1  0  0  0  0
  3 25  1  0  0  0  0
  4  5  1  0  0  0  0
  4 26  1  0  0  0  0
  4 27  1  0  0  0  0
  5  6  1  0  0  0  0
  5 28  1  0  0  0  0
  5 29  1  0  0  0  0
  6  7  1  0  0  0  0
  6 30  1  0  0  0  0
  6 31  1  0  0  0  0
  7  8  1  0  0  0  0
  7 32  1  0  0  0  0
  8  9  1  0  0  0  0
  9 10  1  0  0  0  0
  9 33  1  0  0  0  0
  9 34  1  0  0  0  0
 10 11  1  0  0  0  0
 10 35  1  0  0  0  0
 10 36  1  0  0  0  0
 11 12  1  0  0  0  0
 11 37  1  0  0  0  0
 12 13  2  0  0  0  0
 12 14  1  0  0  0  0
 14 15  1  0  0  0  0
 15 19  1  0  0  0  0
 15 16  2  0  0  0  0
 16 17  1  0  0  0  0
 17 18  2  0  0  0  0
 18 19  1  0  0  0  0
 18 38  1  0  0  0  0
M  CHG  1  14  -1
M  END
> <s_m_source_file>
AV-unprocessed.smi

> <i_m_source_file_index>
1947

> <i_lp_mmshare_version>
43012

> <i_f3d_flags>
0

> <s_epik_input>
W0NIM11bQ0BASF0xW0NIMl1bQ0gyXVtDSDJdW0NIMl1bQ0BIXTFPW0NIMl1bQ0gyXVtOSF1DKD1PKVtOSF1jMm5uW2NIXXMy

> <s_epik_cmdline>
J2VwaWtfcHl0aG9uJywgJy1waCcsICc3LjAnLCAnLXRuJywgJzgnLCAnLW1hJywgJzIwMCcsICctbWV0YWxfYmluZGluZycsICctaW1hZScsICc8aW5maWxlLm1hZT4nLCAnLW9tYWUnLCAnPG91dGZpbGUubWFlPic=

> <r_lp_tautomer_probability>
1

> <r_epik_Ionization_Penalty>
3.35961

> <r_epik_Ionization_Penalty_Charging>
3.31977

> <r_epik_Ionization_Penalty_Neutral>
0.0398394

> <r_epik_State_Penalty>
3.31759

> <r_epik_Charging_Adjusted_Penalty>
6.63736

> <i_epik_Tot_Q>
-1

> <i_epik_Tot_abs_Q>
1

> <r_epik_Metal_State_Penalty>
0.484557

> <b_epik_Metal_Only>
1

> <s_lp_Force_Field>
OPLS_2005

> <r_lp_Energy>
9.4778

> <b_lp_Chiralities_Consistent>
1

> <s_lp_Variant>
AV-unprocessed.smi:1947-7

> <Gold.Version>
5.8.1

> <Gold.Id.Protein>
6NUR|6NUR_protein|mol2

> <Gold.PLP.Fitness>
48.6525

> <Gold.PLP.PLP>
-39.6866

> <Gold.PLP.part.hbond>
-3.3560

> <Gold.PLP.part.metal>
0.0000

> <Gold.PLP.part.buried>
3.0048

> <Gold.PLP.part.nonpolar>
-39.5056

> <Gold.PLP.part.repulsive>
0.9441

> <Gold.PLP.ligand.clash>
0.0000

> <Gold.PLP.ligand.torsion>
0.6501

> <Gold.PLP.Chemscore.Hbond>
2.3988

> <Gold.PLP.Chemscore.CHOScore>
1.0000

> <Gold.PLP.Chemscore.Metal>
0.0000

> <Gold.Chemscore.Hbonds>
donor molecule, donor type, donor heavy atom, donor atom, acceptor molecule, acceptor atom, score
      L1  H    11    37       P1  8028  0.20
      P1  H  7989  7998       L1    13  0.67
      P1  H  8011  8017       L1    14  0.19

> <Gold.PLP.Chemscore.Internal.Correction>
0.0698

> <Gold.Rescore>
     Score         DG    S(hbond)    S(metal)    S(lipo)     H(rot)  DE(clash)    DE(int)     intcor
     14.93     -18.32       1.30        0.00     114.33       1.90       2.61       0.78       ----

> <Gold.Chemscore.Fitness>
14.9285

> <Gold.Chemscore.DG>
-18.3241

> <Gold.Chemscore.ZeroCoef>
-5.4800

> <Gold.Chemscore.Hbond>
1.2954

> <Gold.Chemscore.Metal>
0.0000

> <Gold.Chemscore.Lipo>
114.3347

> <Gold.Chemscore.Internal_Hbond>
0.0000

> <Gold.Chemscore.DEClash>
2.6111

> <Gold.Chemscore.DEInternal>
0.7844

> <Gold.Chemscore.Rot>
1.8984

> <Gold.Chemscore.Internal.Correction>
   9.000000E+99

> <Gold.Chemscore.Hbonds>
donor molecule, donor type, donor heavy atom, donor atom, acceptor molecule, acceptor atom, score
      L1  H    11    37       P1  8028  0.20
      P1  H  7989  7998       L1    13  0.62
      P1  H  8011  8017       L1    14  0.01

> <Gold.Chemscore.Hbond.Weighted>
-4.3267

> <Gold.Chemscore.Metal.Weighted>
-0.0000

> <Gold.Chemscore.Lipo.Weighted>
-13.3772

> <Gold.Chemscore.Internal_Hbond.Weighted>
0.0000

> <Gold.Chemscore.DEClash.Weighted>
2.6111

> <Gold.Chemscore.DEInternal.Weighted>
0.7844

> <Gold.Chemscore.Rot.Weighted>
4.8598

> <Gold.Chemscore.Internal.Correction.Weighted>
   9.000000E+99

> <Gold.Protein.RotatedTorsions>
[ 6907 6896 6895 6894 ] final -112.92 input  -60.11 | X-H torsion
[ 7974 7965 7964 7962 ] final -169.38 input  175.53 | X-H torsion
[ 8008 7997 7996 7995 ] final -153.66 input   59.86 | X-H torsion
[ 10167 10162 10161 10158 ] final  -47.33 input  -65.29 | X-H torsion
[ 10718 10713 10712 10709 ] final  -83.06 input   66.30 | X-H torsion
[ 10763 10752 10751 10750 ] final -151.36 input  -60.55 | X-H torsion
[ 11005 11000 10999 10996 ] final -154.48 input  -57.11 | X-H torsion

> <Gold.Protein.ActiveResidues>
 VAL166  LYS551  ARG553  GLY616  TRP617  ASP618  TYR619  PRO620  LYS621  CYS622 
 ASP623  PHE694  ASN695  SER759  ASP760  ASP761  ALA762  ILE779  LEU786  VAL792 
 PHE793  MET794  SER795  GLU796  ALA797  LYS798  CYS799  TRP800  GLU811  SER814 

> <Gold.Protein.RotatedAtoms>
  150.7792  133.9020  159.3343 H   0  0  0  0  0  0  0  0  0  0  0  0  # atno 6907 bound_to 6896
  151.6887  135.0948  160.0239 H   0  0  0  0  0  0  0  0  0  0  0  0  # atno 6908 bound_to 6896
  152.3838  133.6545  159.6218 H   0  0  0  0  0  0  0  0  0  0  0  0  # atno 6909 bound_to 6896
  144.7186  140.2230  143.6313 H   0  0  0  0  0  0  0  0  0  0  0  0  # atno 7974 bound_to 7965
  155.6743  140.0737  157.2508 H   0  0  0  0  0  0  0  0  0  0  0  0  # atno 8008 bound_to 7997
  154.4117  140.1693  156.1964 H   0  0  0  0  0  0  0  0  0  0  0  0  # atno 8009 bound_to 7997
  155.9590  140.3371  155.6476 H   0  0  0  0  0  0  0  0  0  0  0  0  # atno 8010 bound_to 7997
  140.6779  143.2789  151.3912 H   0  0  0  0  0  0  0  0  0  0  0  0  # atno 10167 bound_to 10162
  156.0024  130.4654  150.4200 H   0  0  0  0  0  0  0  0  0  0  0  0  # atno 10718 bound_to 10713
  154.8063  135.3262  154.7423 H   0  0  0  0  0  0  0  0  0  0  0  0  # atno 10763 bound_to 10752
  153.8081  135.6898  153.4849 H   0  0  0  0  0  0  0  0  0  0  0  0  # atno 10764 bound_to 10752
  153.1810  135.4586  154.9973 H   0  0  0  0  0  0  0  0  0  0  0  0  # atno 10765 bound_to 10752
  140.6968  134.3981  157.5214 H   0  0  0  0  0  0  0  0  0  0  0  0  # atno 11005 bound_to 11000
  145.8483  139.2163  143.1787 LP  0  0  0  0  0  0  0  0  0  0  0  0  # atno 17320 bound_to 7965
  146.0284  140.8282  142.9888 LP  0  0  0  0  0  0  0  0  0  0  0  0  # atno 17321 bound_to 7965
  139.6083  144.1151  152.2272 LP  0  0  0  0  0  0  0  0  0  0  0  0  # atno 17342 bound_to 10162
  140.0557  144.5897  150.7301 LP  0  0  0  0  0  0  0  0  0  0  0  0  # atno 17343 bound_to 10162
  157.2256  131.0492  151.2521 LP  0  0  0  0  0  0  0  0  0  0  0  0  # atno 17370 bound_to 10713
  157.3759  130.7205  149.6596 LP  0  0  0  0  0  0  0  0  0  0  0  0  # atno 17371 bound_to 10713
  139.8908  134.8796  156.2353 LP  0  0  0  0  0  0  0  0  0  0  0  0  # atno 17394 bound_to 11000
  141.0196  133.7049  156.1246 LP  0  0  0  0  0  0  0  0  0  0  0  0  # atno 17395 bound_to 11000

$$$$
