AV-unprocessed.smi:2879|AV-procd|sdf|11049|dock2
  -GOLD-   2272015513D 1   1.00000     0.00000
 Structure written by MMmdl.
 44 45  0  0  0  0  0  0  0  0  1 V2000
  148.7117  133.5723  163.2188 C   0  0  0  0  0  0  0  0  0  0  0  0
  148.8346  134.7485  162.3115 C   0  0  0  0  0  0  0  0  0  0  0  0
  149.1118  134.8368  160.9764 C   0  0  0  0  0  0  0  0  0  0  0  0
  149.0837  136.2361  160.7010 C   0  0  0  0  0  0  0  0  0  0  0  0
  149.3123  136.9257  159.3816 C   0  0  0  0  0  0  0  0  0  0  0  0
  150.6545  137.6600  159.3901 C   0  0  0  0  0  0  0  0  0  0  0  0
  151.6370  137.1459  159.9244 O   0  0  0  0  0  0  0  0  0  0  0  0
  150.6816  138.8628  158.7977 N   0  0  0  0  0  0  0  0  0  0  0  0
  151.8664  139.7002  158.6696 C   0  0  0  0  0  0  0  0  0  0  0  0
  151.6285  141.1044  159.2573 C   0  0  0  0  0  0  0  0  0  0  0  0
  150.5284  141.8822  158.5044 C   0  0  0  0  0  0  0  0  0  0  0  0
  150.3182  143.2886  159.0943 C   0  0  0  0  0  0  0  0  0  0  0  0
  151.6136  144.1348  159.1481 C   0  0  0  0  0  0  0  0  0  0  0  0
  152.0628  144.5454  157.7288 C   0  0  0  0  0  0  0  0  0  0  0  0
  151.3366  145.4223  159.9484 C   0  0  0  0  0  0  0  0  0  0  0  0
  152.7214  143.3262  159.8666 C   0  0  0  0  0  0  0  0  0  0  0  0
  152.9334  141.9210  159.2751 C   0  0  0  0  0  0  0  0  0  0  0  0
  148.8166  136.9573  161.7820 N   0  0  0  0  0  0  0  0  0  0  0  0
  148.6648  136.0397  162.7549 N   0  0  0  0  0  0  0  0  0  0  0  0
  148.4492  136.3053  163.7053 H   0  0  0  0  0  0  0  0  0  0  0  0
  148.7945  132.6393  162.6608 H   0  0  0  0  0  0  0  0  0  0  0  0
  147.7480  133.5743  163.7284 H   0  0  0  0  0  0  0  0  0  0  0  0
  149.4962  133.5832  163.9756 H   0  0  0  0  0  0  0  0  0  0  0  0
  149.3024  134.0223  160.2931 H   0  0  0  0  0  0  0  0  0  0  0  0
  149.3003  136.2114  158.5571 H   0  0  0  0  0  0  0  0  0  0  0  0
  148.5103  137.6384  159.1848 H   0  0  0  0  0  0  0  0  0  0  0  0
  149.8281  139.2071  158.3815 H   0  0  0  0  0  0  0  0  0  0  0  0
  152.6945  139.2128  159.1862 H   0  0  0  0  0  0  0  0  0  0  0  0
  152.1482  139.7789  157.6181 H   0  0  0  0  0  0  0  0  0  0  0  0
  151.3031  140.9804  160.2916 H   0  0  0  0  0  0  0  0  0  0  0  0
  150.7816  141.9535  157.4465 H   0  0  0  0  0  0  0  0  0  0  0  0
  149.5834  141.3399  158.5495 H   0  0  0  0  0  0  0  0  0  0  0  0
  149.5506  143.8128  158.5238 H   0  0  0  0  0  0  0  0  0  0  0  0
  149.9166  143.1787  160.1027 H   0  0  0  0  0  0  0  0  0  0  0  0
  152.9641  145.1585  157.7630 H   0  0  0  0  0  0  0  0  0  0  0  0
  151.2914  145.1289  157.2252 H   0  0  0  0  0  0  0  0  0  0  0  0
  152.2816  143.6873  157.0950 H   0  0  0  0  0  0  0  0  0  0  0  0
  152.2286  146.0457  160.0197 H   0  0  0  0  0  0  0  0  0  0  0  0
  151.0121  145.1996  160.9656 H   0  0  0  0  0  0  0  0  0  0  0  0
  150.5543  146.0207  159.4799 H   0  0  0  0  0  0  0  0  0  0  0  0
  153.6625  143.8772  159.8456 H   0  0  0  0  0  0  0  0  0  0  0  0
  152.4630  143.2171  160.9210 H   0  0  0  0  0  0  0  0  0  0  0  0
  153.6875  141.3965  159.8627 H   0  0  0  0  0  0  0  0  0  0  0  0
  153.3397  141.9969  158.2663 H   0  0  0  0  0  0  0  0  0  0  0  0
  1  2  1  0  0  0  0
  1 21  1  0  0  0  0
  1 22  1  0  0  0  0
  1 23  1  0  0  0  0
  2 19  1  0  0  0  0
  2  3  2  0  0  0  0
  3  4  1  0  0  0  0
  3 24  1  0  0  0  0
  4  5  1  0  0  0  0
  4 18  2  0  0  0  0
  5  6  1  0  0  0  0
  5 25  1  0  0  0  0
  5 26  1  0  0  0  0
  6  7  2  0  0  0  0
  6  8  1  0  0  0  0
  8  9  1  0  0  0  0
  8 27  1  0  0  0  0
  9 10  1  0  0  0  0
  9 28  1  0  0  0  0
  9 29  1  0  0  0  0
 10 17  1  0  0  0  0
 10 11  1  0  0  0  0
 10 30  1  0  0  0  0
 11 12  1  0  0  0  0
 11 31  1  0  0  0  0
 11 32  1  0  0  0  0
 12 13  1  0  0  0  0
 12 33  1  0  0  0  0
 12 34  1  0  0  0  0
 13 14  1  0  0  0  0
 13 15  1  0  0  0  0
 13 16  1  0  0  0  0
 14 35  1  0  0  0  0
 14 36  1  0  0  0  0
 14 37  1  0  0  0  0
 15 38  1  0  0  0  0
 15 39  1  0  0  0  0
 15 40  1  0  0  0  0
 16 17  1  0  0  0  0
 16 41  1  0  0  0  0
 16 42  1  0  0  0  0
 17 43  1  0  0  0  0
 17 44  1  0  0  0  0
 18 19  1  0  0  0  0
 19 20  1  0  0  0  0
M  END
> <s_m_source_file>
AV-unprocessed.smi

> <i_m_source_file_index>
2879

> <i_lp_mmshare_version>
43012

> <i_f3d_flags>
0

> <s_epik_input>
W0NIM11jMVtjSF1jKG5bbkhdMSlbQ0gyXUMoPU8pW05IXVtDSDJdW0NIXShbQ0gyXVtDSDJdMilbQ0gyXVtDSDJdQzIoW0NIM10pW0NIM10=

> <s_epik_cmdline>
J2VwaWtfcHl0aG9uJywgJy1waCcsICc3LjAnLCAnLXRuJywgJzgnLCAnLW1hJywgJzIwMCcsICctbWV0YWxfYmluZGluZycsICctaW1hZScsICc8aW5maWxlLm1hZT4nLCAnLW9tYWUnLCAnPG91dGZpbGUubWFlPic=

> <r_lp_tautomer_probability>
0.5

> <r_epik_Ionization_Penalty>
7.93509e-05

> <r_epik_Ionization_Penalty_Charging>
0

> <r_epik_Ionization_Penalty_Neutral>
7.93509e-05

> <r_epik_State_Penalty>
0.41068

> <r_epik_Charging_Adjusted_Penalty>
0.41068

> <i_epik_Tot_Q>
0

> <i_epik_Tot_abs_Q>
0

> <r_epik_Metal_State_Penalty>
0.4107

> <b_epik_Metal_Only>
0

> <s_lp_Force_Field>
OPLS_2005

> <r_lp_Energy>
12.5825

> <b_lp_Chiralities_Consistent>
1

> <s_lp_Variant>
AV-unprocessed.smi:2879-1

> <Gold.Version>
5.8.1

> <Gold.Id.Protein>
6NUR|6NUR_protein|mol2

> <Gold.PLP.Fitness>
51.9108

> <Gold.PLP.PLP>
-44.7844

> <Gold.PLP.part.hbond>
-2.9914

> <Gold.PLP.part.metal>
0.0000

> <Gold.PLP.part.buried>
-6.2380

> <Gold.PLP.part.nonpolar>
-36.5711

> <Gold.PLP.part.repulsive>
0.3006

> <Gold.PLP.ligand.clash>
0.0000

> <Gold.PLP.ligand.torsion>
0.4314

> <Gold.PLP.Chemscore.Hbond>
2.6553

> <Gold.PLP.Chemscore.CHOScore>
0.0000

> <Gold.PLP.Chemscore.Metal>
0.0000

> <Gold.Chemscore.Hbonds>
donor molecule, donor type, donor heavy atom, donor atom, acceptor molecule, acceptor atom, score
      P1  H  6896  6908       L1     7  1.00
      P1  H  6931  6943       L1    18  0.44

> <Gold.PLP.Chemscore.Internal.Correction>
0.0235

> <Gold.Rescore>
     Score         DG    S(hbond)    S(metal)    S(lipo)     H(rot)  DE(clash)    DE(int)     intcor
     22.97     -23.44       2.57        0.00     113.93       1.55       0.06       0.41       ----

> <Gold.Chemscore.Fitness>
22.9667

> <Gold.Chemscore.DG>
-23.4361

> <Gold.Chemscore.ZeroCoef>
-5.4800

> <Gold.Chemscore.Hbond>
2.5722

> <Gold.Chemscore.Metal>
0.0000

> <Gold.Chemscore.Lipo>
113.9330

> <Gold.Chemscore.Internal_Hbond>
0.0000

> <Gold.Chemscore.DEClash>
0.0631

> <Gold.Chemscore.DEInternal>
0.4062

> <Gold.Chemscore.Rot>
1.5489

> <Gold.Chemscore.Internal.Correction>
   9.000000E+99

> <Gold.Chemscore.Hbonds>
donor molecule, donor type, donor heavy atom, donor atom, acceptor molecule, acceptor atom, score
      P1  H  6896  6908       L1     7  0.56
      P1  H  6931  6943       L1    18  0.43

> <Gold.Chemscore.Hbond.Weighted>
-8.5911

> <Gold.Chemscore.Metal.Weighted>
-0.0000

> <Gold.Chemscore.Lipo.Weighted>
-13.3302

> <Gold.Chemscore.Internal_Hbond.Weighted>
0.0000

> <Gold.Chemscore.DEClash.Weighted>
0.0631

> <Gold.Chemscore.DEInternal.Weighted>
0.4062

> <Gold.Chemscore.Rot.Weighted>
3.9652

> <Gold.Chemscore.Internal.Correction.Weighted>
   9.000000E+99

> <Gold.Protein.RotatedTorsions>
[ 6907 6896 6895 6894 ] final -136.41 input  -60.11 | X-H torsion
[ 7974 7965 7964 7962 ] final   67.05 input  175.53 | X-H torsion
[ 8008 7997 7996 7995 ] final -164.75 input   59.86 | X-H torsion
[ 10167 10162 10161 10158 ] final  158.30 input  -65.29 | X-H torsion
[ 10718 10713 10712 10709 ] final  109.85 input   66.30 | X-H torsion
[ 10763 10752 10751 10750 ] final   82.17 input  -60.55 | X-H torsion
[ 11005 11000 10999 10996 ] final  176.65 input  -57.11 | X-H torsion

> <Gold.Protein.ActiveResidues>
 VAL166  LYS551  ARG553  GLY616  TRP617  ASP618  TYR619  PRO620  LYS621  CYS622 
 ASP623  PHE694  ASN695  SER759  ASP760  ASP761  ALA762  ILE779  LEU786  VAL792 
 PHE793  MET794  SER795  GLU796  ALA797  LYS798  CYS799  TRP800  GLU811  SER814 

> <Gold.Protein.RotatedAtoms>
  151.0097  133.5977  159.2683 H   0  0  0  0  0  0  0  0  0  0  0  0  # atno 6907 bound_to 6896
  151.3132  135.0799  159.9289 H   0  0  0  0  0  0  0  0  0  0  0  0  # atno 6908 bound_to 6896
  152.5296  133.9758  159.7837 H   0  0  0  0  0  0  0  0  0  0  0  0  # atno 6909 bound_to 6896
  145.8193  139.3076  143.1053 H   0  0  0  0  0  0  0  0  0  0  0  0  # atno 7974 bound_to 7965
  155.8400  140.0947  157.1740 H   0  0  0  0  0  0  0  0  0  0  0  0  # atno 8008 bound_to 7997
  154.3981  140.1403  156.3778 H   0  0  0  0  0  0  0  0  0  0  0  0  # atno 8009 bound_to 7997
  155.8075  140.3451  155.5440 H   0  0  0  0  0  0  0  0  0  0  0  0  # atno 8010 bound_to 7997
  139.4826  144.4838  151.8407 H   0  0  0  0  0  0  0  0  0  0  0  0  # atno 10167 bound_to 10162
  157.6522  131.0921  150.6515 H   0  0  0  0  0  0  0  0  0  0  0  0  # atno 10718 bound_to 10713
  153.1179  135.4738  154.9146 H   0  0  0  0  0  0  0  0  0  0  0  0  # atno 10763 bound_to 10752
  154.7547  135.3115  154.8495 H   0  0  0  0  0  0  0  0  0  0  0  0  # atno 10764 bound_to 10752
  153.9067  135.6869  153.4806 H   0  0  0  0  0  0  0  0  0  0  0  0  # atno 10765 bound_to 10752
  140.3755  134.6993  157.4418 H   0  0  0  0  0  0  0  0  0  0  0  0  # atno 11005 bound_to 11000
  145.9692  140.8774  143.0171 LP  0  0  0  0  0  0  0  0  0  0  0  0  # atno 17320 bound_to 7965
  144.6749  140.1922  143.7395 LP  0  0  0  0  0  0  0  0  0  0  0  0  # atno 17321 bound_to 7965
  140.4316  144.2108  150.5888 LP  0  0  0  0  0  0  0  0  0  0  0  0  # atno 17342 bound_to 10162
  140.4774  143.2391  151.9004 LP  0  0  0  0  0  0  0  0  0  0  0  0  # atno 17343 bound_to 10162
  156.6825  130.4571  149.5623 LP  0  0  0  0  0  0  0  0  0  0  0  0  # atno 17370 bound_to 10713
  156.1919  130.6565  151.1070 LP  0  0  0  0  0  0  0  0  0  0  0  0  # atno 17371 bound_to 10713
  140.0519  134.6119  155.8852 LP  0  0  0  0  0  0  0  0  0  0  0  0  # atno 17394 bound_to 11000
  141.1941  133.6581  156.5578 LP  0  0  0  0  0  0  0  0  0  0  0  0  # atno 17395 bound_to 11000

$$$$
