AV-unprocessed.smi:1648|AV-procd|sdf|6631|dock2
  -GOLD-   22720 7333D 1   1.00000     0.00000
 Structure written by MMmdl.
 41 41  0  0  0  0  0  0  0  0  1 V2000
  153.1966  137.5979  162.0755 C   0  0  0  0  0  0  0  0  0  0  0  0
  153.0688  137.2939  160.5815 C   0  0  0  0  0  0  0  0  0  0  0  0
  153.6357  136.3081  160.1158 O   0  0  0  0  0  0  0  0  0  0  0  0
  152.3414  138.1131  159.8021 N   0  0  0  0  0  0  0  0  0  0  0  0
  152.1003  137.9942  158.3611 C   0  0  2  0  0  0  0  0  0  0  0  0
  151.9316  139.4063  157.7682 C   0  0  0  0  0  0  0  0  0  0  0  0
  152.4590  139.7034  156.6951 O   0  0  0  0  0  0  0  0  0  0  0  0
  151.2044  140.2690  158.4951 N   0  0  0  0  0  0  0  0  0  0  0  0
  150.9235  141.6556  158.1361 C   0  0  2  0  0  0  0  0  0  0  0  0
  150.3574  141.7258  156.7056 C   0  0  0  0  0  0  0  0  0  0  0  0
  152.2054  142.4908  158.3251 C   0  0  0  0  0  0  0  0  0  0  0  0
  152.1432  143.3634  159.4827 N   0  0  0  0  0  0  0  0  0  0  0  0
  151.8451  144.7196  159.4928 C   0  0  0  0  0  0  0  0  0  0  0  0
  151.9010  145.1247  160.8073 C   0  0  0  0  0  0  0  0  0  0  0  0
  152.2251  144.0402  161.6186 N   0  0  0  0  0  0  0  0  0  0  0  0
  152.3503  143.0324  160.7649 C   0  0  0  0  0  0  0  0  0  0  0  0
  150.7988  137.1682  158.1381 C   0  0  0  0  0  0  0  0  0  0  0  0
  150.4803  136.9933  156.6397 C   0  0  0  0  0  0  0  0  0  0  0  0
  149.5680  137.7727  158.8463 C   0  0  0  0  0  0  0  0  0  0  0  0
  152.2176  137.6200  162.5540 H   0  0  0  0  0  0  0  0  0  0  0  0
  153.6879  138.5579  162.2342 H   0  0  0  0  0  0  0  0  0  0  0  0
  153.7926  136.8316  162.5723 H   0  0  0  0  0  0  0  0  0  0  0  0
  151.9227  138.9142  160.2521 H   0  0  0  0  0  0  0  0  0  0  0  0
  152.9344  137.4813  157.8792 H   0  0  0  0  0  0  0  0  0  0  0  0
  150.8165  139.9390  159.3669 H   0  0  0  0  0  0  0  0  0  0  0  0
  150.1687  142.0475  158.8208 H   0  0  0  0  0  0  0  0  0  0  0  0
  150.0777  142.7440  156.4350 H   0  0  0  0  0  0  0  0  0  0  0  0
  149.4629  141.1108  156.6043 H   0  0  0  0  0  0  0  0  0  0  0  0
  151.0864  141.3744  155.9743 H   0  0  0  0  0  0  0  0  0  0  0  0
  153.0692  141.8349  158.4429 H   0  0  0  0  0  0  0  0  0  0  0  0
  152.3948  143.1013  157.4406 H   0  0  0  0  0  0  0  0  0  0  0  0
  151.6267  145.2688  158.5888 H   0  0  0  0  0  0  0  0  0  0  0  0
  151.7328  146.1050  161.2280 H   0  0  0  0  0  0  0  0  0  0  0  0
  152.6026  142.0304  161.0797 H   0  0  0  0  0  0  0  0  0  0  0  0
  150.9481  136.1682  158.5497 H   0  0  0  0  0  0  0  0  0  0  0  0
  150.3535  137.9583  156.1481 H   0  0  0  0  0  0  0  0  0  0  0  0
  149.5601  136.4262  156.4972 H   0  0  0  0  0  0  0  0  0  0  0  0
  151.2678  136.4532  156.1143 H   0  0  0  0  0  0  0  0  0  0  0  0
  149.3941  138.8006  158.5265 H   0  0  0  0  0  0  0  0  0  0  0  0
  149.6753  137.7737  159.9311 H   0  0  0  0  0  0  0  0  0  0  0  0
  148.6669  137.2010  158.6227 H   0  0  0  0  0  0  0  0  0  0  0  0
  1  2  1  0  0  0  0
  1 20  1  0  0  0  0
  1 21  1  0  0  0  0
  1 22  1  0  0  0  0
  2  3  2  0  0  0  0
  2  4  1  0  0  0  0
  4  5  1  0  0  0  0
  4 23  1  0  0  0  0
  5  6  1  0  0  0  0
  5 17  1  0  0  0  0
  5 24  1  0  0  0  0
  6  7  2  0  0  0  0
  6  8  1  0  0  0  0
  8  9  1  0  0  0  0
  8 25  1  0  0  0  0
  9 10  1  0  0  0  0
  9 11  1  0  0  0  0
  9 26  1  0  0  0  0
 10 27  1  0  0  0  0
 10 28  1  0  0  0  0
 10 29  1  0  0  0  0
 11 12  1  0  0  0  0
 11 30  1  0  0  0  0
 11 31  1  0  0  0  0
 12 16  1  0  0  0  0
 12 13  1  0  0  0  0
 13 14  2  0  0  0  0
 13 32  1  0  0  0  0
 14 15  1  0  0  0  0
 14 33  1  0  0  0  0
 15 16  2  0  0  0  0
 16 34  1  0  0  0  0
 17 18  1  0  0  0  0
 17 19  1  0  0  0  0
 17 35  1  0  0  0  0
 18 36  1  0  0  0  0
 18 37  1  0  0  0  0
 18 38  1  0  0  0  0
 19 39  1  0  0  0  0
 19 40  1  0  0  0  0
 19 41  1  0  0  0  0
M  END
> <s_m_source_file>
AV-unprocessed.smi

> <i_m_source_file_index>
1648

> <i_lp_mmshare_version>
43012

> <i_f3d_flags>
0

> <s_epik_input>
W0NIM11DKD1PKVtOSF1bQ0BASF0oW0NIXShbQ0gzXSlbQ0gzXSlDKD1PKVtOSF1bQ0BIXShbQ0gzXSlbQ0gyXW4xW2NIXVtjSF1uW2NIXTE=

> <s_epik_cmdline>
J2VwaWtfcHl0aG9uJywgJy1waCcsICc3LjAnLCAnLXRuJywgJzgnLCAnLW1hJywgJzIwMCcsICctbWV0YWxfYmluZGluZycsICctaW1hZScsICc8aW5maWxlLm1hZT4nLCAnLW9tYWUnLCAnPG91dGZpbGUubWFlPic=

> <r_lp_tautomer_probability>
1

> <r_epik_Ionization_Penalty>
0.628885

> <r_epik_Ionization_Penalty_Charging>
0.628884

> <r_epik_Ionization_Penalty_Neutral>
4.35155e-07

> <r_epik_State_Penalty>
0.64556

> <r_epik_Charging_Adjusted_Penalty>
1.27444

> <i_epik_Tot_Q>
0

> <i_epik_Tot_abs_Q>
0

> <r_epik_Metal_State_Penalty>
0.30874

> <b_epik_Metal_Only>
0

> <s_lp_Force_Field>
OPLS_2005

> <r_lp_Energy>
10.0668

> <b_lp_Chiralities_Consistent>
1

> <s_lp_Variant>
AV-unprocessed.smi:1648-5

> <Gold.Version>
5.8.1

> <Gold.Id.Protein>
6NUR|6NUR_protein|mol2

> <Gold.PLP.Fitness>
34.9259

> <Gold.PLP.PLP>
-32.7155

> <Gold.PLP.part.hbond>
-2.0000

> <Gold.PLP.part.metal>
0.0000

> <Gold.PLP.part.buried>
-5.9227

> <Gold.PLP.part.nonpolar>
-25.8227

> <Gold.PLP.part.repulsive>
0.4022

> <Gold.PLP.ligand.clash>
0.0000

> <Gold.PLP.ligand.torsion>
1.9344

> <Gold.PLP.Chemscore.Hbond>
2.0000

> <Gold.PLP.Chemscore.CHOScore>
0.0000

> <Gold.PLP.Chemscore.Metal>
0.0000

> <Gold.Chemscore.Hbonds>
donor molecule, donor type, donor heavy atom, donor atom, acceptor molecule, acceptor atom, score
      P1  H  6896  6907       L1     3  1.00
      P1  H  7997  8008       L1     7  1.00

> <Gold.PLP.Chemscore.Internal.Correction>
0.0791

> <Gold.Rescore>
     Score         DG    S(hbond)    S(metal)    S(lipo)     H(rot)  DE(clash)    DE(int)     intcor
      9.59     -13.65       1.96        0.00      68.97       2.52       0.08       3.98       ----

> <Gold.Chemscore.Fitness>
9.5914

> <Gold.Chemscore.DG>
-13.6513

> <Gold.Chemscore.ZeroCoef>
-5.4800

> <Gold.Chemscore.Hbond>
1.9631

> <Gold.Chemscore.Metal>
0.0000

> <Gold.Chemscore.Lipo>
68.9745

> <Gold.Chemscore.Internal_Hbond>
0.0000

> <Gold.Chemscore.DEClash>
0.0841

> <Gold.Chemscore.DEInternal>
3.9758

> <Gold.Chemscore.Rot>
2.5216

> <Gold.Chemscore.Internal.Correction>
   9.000000E+99

> <Gold.Chemscore.Hbonds>
donor molecule, donor type, donor heavy atom, donor atom, acceptor molecule, acceptor atom, score
      P1  H  6896  6907       L1     3  0.76
      P1  H  7997  8008       L1     7  0.99

> <Gold.Chemscore.Hbond.Weighted>
-6.5566

> <Gold.Chemscore.Metal.Weighted>
-0.0000

> <Gold.Chemscore.Lipo.Weighted>
-8.0700

> <Gold.Chemscore.Internal_Hbond.Weighted>
0.0000

> <Gold.Chemscore.DEClash.Weighted>
0.0841

> <Gold.Chemscore.DEInternal.Weighted>
3.9758

> <Gold.Chemscore.Rot.Weighted>
6.4553

> <Gold.Chemscore.Internal.Correction.Weighted>
   9.000000E+99

> <Gold.Protein.RotatedTorsions>
[ 6907 6896 6895 6894 ] final   55.15 input  -60.11 | X-H torsion
[ 7974 7965 7964 7962 ] final  -28.01 input  175.53 | X-H torsion
[ 8008 7997 7996 7995 ] final  -52.53 input   59.86 | X-H torsion
[ 10167 10162 10161 10158 ] final  120.48 input  -65.29 | X-H torsion
[ 10718 10713 10712 10709 ] final   18.10 input   66.30 | X-H torsion
[ 10763 10752 10751 10750 ] final  114.14 input  -60.55 | X-H torsion
[ 11005 11000 10999 10996 ] final  176.43 input  -57.11 | X-H torsion

> <Gold.Protein.ActiveResidues>
 VAL166  LYS551  ARG553  GLY616  TRP617  ASP618  TYR619  PRO620  LYS621  CYS622 
 ASP623  PHE694  ASN695  SER759  ASP760  ASP761  ALA762  ILE779  LEU786  VAL792 
 PHE793  MET794  SER795  GLU796  ALA797  LYS798  CYS799  TRP800  GLU811  SER814 

> <Gold.Protein.RotatedAtoms>
  152.3510  134.7006  160.0236 H   0  0  0  0  0  0  0  0  0  0  0  0  # atno 6907 bound_to 6896
  151.7360  133.3314  159.3361 H   0  0  0  0  0  0  0  0  0  0  0  0  # atno 6908 bound_to 6896
  150.7540  134.6254  159.6203 H   0  0  0  0  0  0  0  0  0  0  0  0  # atno 6909 bound_to 6896
  146.1318  140.5227  142.8690 H   0  0  0  0  0  0  0  0  0  0  0  0  # atno 7974 bound_to 7965
  154.4109  140.1222  156.5006 H   0  0  0  0  0  0  0  0  0  0  0  0  # atno 8008 bound_to 7997
  155.6899  140.3495  155.4870 H   0  0  0  0  0  0  0  0  0  0  0  0  # atno 8009 bound_to 7997
  155.9478  140.1099  157.0992 H   0  0  0  0  0  0  0  0  0  0  0  0  # atno 8010 bound_to 7997
  139.5979  144.7047  151.3131 H   0  0  0  0  0  0  0  0  0  0  0  0  # atno 10167 bound_to 10162
  157.0915  130.6430  149.5850 H   0  0  0  0  0  0  0  0  0  0  0  0  # atno 10718 bound_to 10713
  153.5028  135.3634  155.2548 H   0  0  0  0  0  0  0  0  0  0  0  0  # atno 10763 bound_to 10752
  154.8747  135.4004  154.3459 H   0  0  0  0  0  0  0  0  0  0  0  0  # atno 10764 bound_to 10752
  153.4098  135.7077  153.6434 H   0  0  0  0  0  0  0  0  0  0  0  0  # atno 10765 bound_to 10752
  140.3730  134.7013  157.4404 H   0  0  0  0  0  0  0  0  0  0  0  0  # atno 11005 bound_to 11000
  144.7698  140.5613  143.6678 LP  0  0  0  0  0  0  0  0  0  0  0  0  # atno 17320 bound_to 7965
  145.5244  139.1476  143.3534 LP  0  0  0  0  0  0  0  0  0  0  0  0  # atno 17321 bound_to 7965
  140.7227  143.7091  150.7783 LP  0  0  0  0  0  0  0  0  0  0  0  0  # atno 17342 bound_to 10162
  140.0662  143.5106  152.2603 LP  0  0  0  0  0  0  0  0  0  0  0  0  # atno 17343 bound_to 10162
  155.9897  130.4945  150.7224 LP  0  0  0  0  0  0  0  0  0  0  0  0  # atno 17370 bound_to 10713
  157.4717  131.0894  151.0635 LP  0  0  0  0  0  0  0  0  0  0  0  0  # atno 17371 bound_to 10713
  140.0537  134.6094  155.8831 LP  0  0  0  0  0  0  0  0  0  0  0  0  # atno 17394 bound_to 11000
  141.1948  133.6584  156.5614 LP  0  0  0  0  0  0  0  0  0  0  0  0  # atno 17395 bound_to 11000

$$$$
