AV-unprocessed.smi:21|AV-procd|sdf|135|dock8
  -GOLD-   2262015333D 1   1.00000     0.00000
 Structure written by MMmdl.
 62 65  0  0  0  0  0  0  0  0  2 V2000
  145.8939  135.3281  150.4694 C   0  0  0  0  0  0  0  0  0  0  0  0
  145.0889  134.1764  150.6672 O   0  0  0  0  0  0  0  0  0  0  0  0
  145.7692  132.9553  150.4108 C   0  0  1  0  0  0  0  0  0  0  0  0
  146.9741  132.8593  151.3478 C   0  0  0  0  0  0  0  0  0  0  0  0
  146.4646  132.0254  152.5228 C   0  0  2  0  0  0  0  0  0  0  0  0
  147.5689  131.4131  153.4170 C   0  0  0  0  0  0  0  0  0  0  0  0
  148.3562  132.4247  154.1187 N   0  0  0  0  0  0  0  0  0  0  0  0
  147.7537  133.7416  154.3246 C   0  0  0  0  0  0  0  0  0  0  0  0
  149.5007  132.1035  154.7954 C   0  0  0  0  0  0  0  0  0  0  0  0
  150.1269  133.0928  155.4897 N   0  0  0  0  0  0  0  0  0  0  0  0
  151.2456  132.8547  156.1775 C   0  0  0  0  0  0  0  0  0  0  0  0
  151.9117  131.7094  156.3092 N   0  0  0  0  0  0  0  0  0  0  0  0
  151.3055  130.7053  155.6165 C   0  0  0  0  0  0  0  0  0  0  0  0
  150.1118  130.8086  154.8403 C   0  0  0  0  0  0  0  0  0  0  0  0
  149.8208  129.5617  154.2910 N   0  0  0  0  0  0  0  0  0  0  0  0
  150.7758  128.7799  154.7111 C   0  0  0  0  0  0  0  0  0  0  0  0
  151.7133  129.3869  155.5102 N   0  0  0  0  0  0  0  0  0  0  0  0
  152.8762  128.7539  156.1085 C   0  0  0  0  0  0  0  0  0  0  0  0
  153.9380  129.7707  156.5963 C   0  0  1  0  0  0  0  0  0  0  0  0
  154.9057  129.1658  157.6429 C   0  0  0  0  0  0  0  0  0  0  0  0
  154.2026  128.5240  158.6866 O   0  0  0  0  0  0  0  0  0  0  0  0
  154.6919  130.4262  155.4110 C   0  0  1  0  0  0  0  0  0  0  0  0
  156.0417  131.0251  155.7654 C   0  0  0  0  0  0  0  0  0  0  0  0
  156.7063  131.1450  154.3991 C   0  0  0  0  0  0  0  0  0  0  0  0
  156.2290  130.0361  153.6468 O   0  0  0  0  0  0  0  0  0  0  0  0
  155.1007  129.4567  154.2959 C   0  0  0  0  0  0  0  0  0  0  0  0
  145.5391  131.0430  151.9070 N   0  3  2  0  0  0  0  0  0  0  0  0
  146.1482  129.7553  151.4923 C   0  0  0  0  0  0  0  0  0  0  0  0
  144.8827  131.7478  150.7804 C   0  0  0  0  0  0  0  0  0  0  0  0
  146.1055  132.9132  149.3732 H   0  0  0  0  0  0  0  0  0  0  0  0
  145.8348  132.6734  153.1340 H   0  0  0  0  0  0  0  0  0  0  0  0
  145.3043  136.2230  150.6686 H   0  0  0  0  0  0  0  0  0  0  0  0
  146.2641  135.3918  149.4458 H   0  0  0  0  0  0  0  0  0  0  0  0
  146.7465  135.3320  151.1493 H   0  0  0  0  0  0  0  0  0  0  0  0
  147.7872  132.3335  150.8456 H   0  0  0  0  0  0  0  0  0  0  0  0
  147.3516  133.8364  151.6517 H   0  0  0  0  0  0  0  0  0  0  0  0
  147.1539  130.7075  154.1345 H   0  0  0  0  0  0  0  0  0  0  0  0
  148.2458  130.8161  152.8051 H   0  0  0  0  0  0  0  0  0  0  0  0
  148.4304  134.5303  153.9939 H   0  0  0  0  0  0  0  0  0  0  0  0
  147.5219  133.9016  155.3782 H   0  0  0  0  0  0  0  0  0  0  0  0
  146.8257  133.8476  153.7622 H   0  0  0  0  0  0  0  0  0  0  0  0
  151.6667  133.7035  156.6961 H   0  0  0  0  0  0  0  0  0  0  0  0
  150.8266  127.7337  154.4454 H   0  0  0  0  0  0  0  0  0  0  0  0
  152.5474  128.1223  156.9347 H   0  0  0  0  0  0  0  0  0  0  0  0
  153.3016  128.0832  155.3621 H   0  0  0  0  0  0  0  0  0  0  0  0
  153.3962  130.5676  157.1080 H   0  0  0  0  0  0  0  0  0  0  0  0
  155.5764  128.4424  157.1797 H   0  0  0  0  0  0  0  0  0  0  0  0
  155.5480  129.9337  158.0742 H   0  0  0  0  0  0  0  0  0  0  0  0
  154.7512  127.8429  159.0449 H   0  0  0  0  0  0  0  0  0  0  0  0
  154.0746  131.2141  154.9758 H   0  0  0  0  0  0  0  0  0  0  0  0
  155.9677  131.9858  156.2757 H   0  0  0  0  0  0  0  0  0  0  0  0
  156.6098  130.3424  156.3992 H   0  0  0  0  0  0  0  0  0  0  0  0
  156.3915  132.0639  153.9027 H   0  0  0  0  0  0  0  0  0  0  0  0
  157.7948  131.1484  154.4613 H   0  0  0  0  0  0  0  0  0  0  0  0
  155.4058  128.4948  154.7102 H   0  0  0  0  0  0  0  0  0  0  0  0
  154.2928  129.2760  153.5865 H   0  0  0  0  0  0  0  0  0  0  0  0
  146.9664  129.9116  150.7884 H   0  0  0  0  0  0  0  0  0  0  0  0
  145.4033  129.1211  151.0106 H   0  0  0  0  0  0  0  0  0  0  0  0
  146.5280  129.1998  152.3496 H   0  0  0  0  0  0  0  0  0  0  0  0
  143.9011  132.0799  151.1202 H   0  0  0  0  0  0  0  0  0  0  0  0
  144.7164  131.0947  149.9224 H   0  0  0  0  0  0  0  0  0  0  0  0
  144.8313  130.8143  152.5907 H   0  0  0  0  0  0  0  0  0  0  0  0
  1  2  1  0  0  0  0
  1 32  1  0  0  0  0
  1 33  1  0  0  0  0
  1 34  1  0  0  0  0
  2  3  1  0  0  0  0
  3 30  1  0  0  0  0
  3 29  1  0  0  0  0
  3  4  1  0  0  0  0
  4  5  1  0  0  0  0
  4 35  1  0  0  0  0
  4 36  1  0  0  0  0
  5 31  1  0  0  0  0
  5  6  1  0  0  0  0
  5 27  1  0  0  0  0
  6  7  1  0  0  0  0
  6 37  1  0  0  0  0
  6 38  1  0  0  0  0
  7  8  1  0  0  0  0
  7  9  1  0  0  0  0
  8 39  1  0  0  0  0
  8 40  1  0  0  0  0
  8 41  1  0  0  0  0
  9 14  1  0  0  0  0
  9 10  2  0  0  0  0
 10 11  1  0  0  0  0
 11 12  2  0  0  0  0
 11 42  1  0  0  0  0
 12 13  1  0  0  0  0
 13 17  1  0  0  0  0
 13 14  2  0  0  0  0
 14 15  1  0  0  0  0
 15 16  2  0  0  0  0
 16 17  1  0  0  0  0
 16 43  1  0  0  0  0
 17 18  1  0  0  0  0
 18 19  1  0  0  0  0
 18 44  1  0  0  0  0
 18 45  1  0  0  0  0
 19 20  1  0  0  0  0
 19 22  1  0  0  0  0
 19 46  1  0  0  0  0
 20 21  1  0  0  0  0
 20 47  1  0  0  0  0
 20 48  1  0  0  0  0
 21 49  1  0  0  0  0
 22 26  1  0  0  0  0
 22 23  1  0  0  0  0
 22 50  1  0  0  0  0
 23 24  1  0  0  0  0
 23 51  1  0  0  0  0
 23 52  1  0  0  0  0
 24 25  1  0  0  0  0
 24 53  1  0  0  0  0
 24 54  1  0  0  0  0
 25 26  1  0  0  0  0
 26 55  1  0  0  0  0
 26 56  1  0  0  0  0
 27 28  1  0  0  0  0
 27 29  1  0  0  0  0
 27 62  1  0  0  0  0
 28 57  1  0  0  0  0
 28 58  1  0  0  0  0
 28 59  1  0  0  0  0
 29 60  1  0  0  0  0
 29 61  1  0  0  0  0
M  CHG  1  27   1
M  END
> <s_m_source_file>
AV-unprocessed.smi

> <i_m_source_file_index>
21

> <i_lp_mmshare_version>
43012

> <i_f3d_flags>
0

> <s_epik_input>
W0NIM11PW0NASF0xW0NIMl1bQ0BIXShOKFtDSDNdKVtDSDJdMSlbQ0gyXU4oW0NIM10pYyhuW2NIXW4yKWMoYzIzKW5bY0hdbjNbQ0gyXVtDQEhdKFtDSDJdW09IXSlbQ0BASF00W0NIMl1bQ0gyXU9bQ0gyXTQ=

> <s_epik_cmdline>
J2VwaWtfcHl0aG9uJywgJy1waCcsICc3LjAnLCAnLXRuJywgJzgnLCAnLW1hJywgJzIwMCcsICctbWV0YWxfYmluZGluZycsICctaW1hZScsICc8aW5maWxlLm1hZT4nLCAnLW9tYWUnLCAnPG91dGZpbGUubWFlPic=

> <r_lp_tautomer_probability>
1

> <r_epik_Ionization_Penalty>
0.0157465

> <r_epik_Ionization_Penalty_Charging>
0.015354

> <r_epik_Ionization_Penalty_Neutral>
0.000392529

> <r_epik_State_Penalty>
0.0120612

> <r_epik_Charging_Adjusted_Penalty>
0.0274152

> <i_epik_Tot_Q>
1

> <i_epik_Tot_abs_Q>
1

> <r_epik_Metal_State_Penalty>
0.0121253

> <b_epik_Metal_Only>
0

> <s_lp_Force_Field>
OPLS_2005

> <r_lp_Energy>
62.2742

> <b_lp_Chiralities_Consistent>
1

> <s_lp_Variant>
AV-unprocessed.smi:21-15

> <Gold.Version>
5.8.1

> <Gold.Id.Protein>
6NUR|6NUR_protein|mol2

> <Gold.PLP.Fitness>
45.8036

> <Gold.PLP.PLP>
-42.5210

> <Gold.PLP.part.hbond>
-1.0000

> <Gold.PLP.part.metal>
0.0000

> <Gold.PLP.part.buried>
-5.6030

> <Gold.PLP.part.nonpolar>
-36.4107

> <Gold.PLP.part.repulsive>
0.2898

> <Gold.PLP.ligand.clash>
0.0000

> <Gold.PLP.ligand.torsion>
1.1216

> <Gold.PLP.Chemscore.Hbond>
1.0000

> <Gold.PLP.Chemscore.CHOScore>
0.6990

> <Gold.PLP.Chemscore.Metal>
0.0000

> <Gold.PLP.Chemscore.Internal.Correction>
0.4288

> <Gold.Rescore>
     Score         DG    S(hbond)    S(metal)    S(lipo)     H(rot)  DE(clash)    DE(int)     intcor
      7.89     -11.59       0.98        0.00      91.50       3.08       0.08       3.63       ----

> <Gold.Chemscore.Fitness>
7.8906

> <Gold.Chemscore.DG>
-11.5936

> <Gold.Chemscore.ZeroCoef>
-5.4800

> <Gold.Chemscore.Hbond>
0.9826

> <Gold.Chemscore.Metal>
0.0000

> <Gold.Chemscore.Lipo>
91.5027

> <Gold.Chemscore.Internal_Hbond>
0.0000

> <Gold.Chemscore.DEClash>
0.0757

> <Gold.Chemscore.DEInternal>
3.6273

> <Gold.Chemscore.Rot>
3.0758

> <Gold.Chemscore.Internal.Correction>
   9.000000E+99

> <Gold.Chemscore.Hbond.Weighted>
-3.2819

> <Gold.Chemscore.Metal.Weighted>
-0.0000

> <Gold.Chemscore.Lipo.Weighted>
-10.7058

> <Gold.Chemscore.Internal_Hbond.Weighted>
0.0000

> <Gold.Chemscore.DEClash.Weighted>
0.0757

> <Gold.Chemscore.DEInternal.Weighted>
3.6273

> <Gold.Chemscore.Rot.Weighted>
7.8741

> <Gold.Chemscore.Internal.Correction.Weighted>
   9.000000E+99

> <Gold.Protein.RotatedTorsions>
[ 6907 6896 6895 6894 ] final -129.36 input  -60.11 | X-H torsion
[ 7974 7965 7964 7962 ] final  127.28 input  175.53 | X-H torsion
[ 8008 7997 7996 7995 ] final  135.47 input   59.86 | X-H torsion
[ 10167 10162 10161 10158 ] final  112.90 input  -65.29 | X-H torsion
[ 10718 10713 10712 10709 ] final -178.49 input   66.30 | X-H torsion
[ 10763 10752 10751 10750 ] final  153.40 input  -60.55 | X-H torsion
[ 11005 11000 10999 10996 ] final  -99.52 input  -57.11 | X-H torsion

> <Gold.Protein.ActiveResidues>
 VAL166  LYS551  ARG553  GLY616  TRP617  ASP618  TYR619  PRO620  LYS621  CYS622 
 ASP623  PHE694  ASN695  SER759  ASP760  ASP761  ALA762  ILE779  LEU786  VAL792 
 PHE793  MET794  SER795  GLU796  ALA797  LYS798  CYS799  TRP800  GLU811  SER814 

> <Gold.Protein.RotatedAtoms>
  150.9279  133.6802  159.2817 H   0  0  0  0  0  0  0  0  0  0  0  0  # atno 6907 bound_to 6896
  151.4234  135.0999  159.9630 H   0  0  0  0  0  0  0  0  0  0  0  0  # atno 6908 bound_to 6896
  152.5012  133.8726  159.7361 H   0  0  0  0  0  0  0  0  0  0  0  0  # atno 6909 bound_to 6896
  145.0523  139.3873  143.5048 H   0  0  0  0  0  0  0  0  0  0  0  0  # atno 7974 bound_to 7965
  156.3003  140.2470  156.3586 H   0  0  0  0  0  0  0  0  0  0  0  0  # atno 8008 bound_to 7997
  154.8898  140.0409  157.1851 H   0  0  0  0  0  0  0  0  0  0  0  0  # atno 8009 bound_to 7997
  154.8609  140.2920  155.5543 H   0  0  0  0  0  0  0  0  0  0  0  0  # atno 8010 bound_to 7997
  139.6501  144.7128  151.2064 H   0  0  0  0  0  0  0  0  0  0  0  0  # atno 10167 bound_to 10162
  156.8450  130.9699  151.3097 H   0  0  0  0  0  0  0  0  0  0  0  0  # atno 10718 bound_to 10713
  154.1356  135.2824  155.3174 H   0  0  0  0  0  0  0  0  0  0  0  0  # atno 10763 bound_to 10752
  154.6324  135.5430  153.7699 H   0  0  0  0  0  0  0  0  0  0  0  0  # atno 10764 bound_to 10752
  153.0267  135.6466  154.1505 H   0  0  0  0  0  0  0  0  0  0  0  0  # atno 10765 bound_to 10752
  141.1305  133.8328  157.0983 H   0  0  0  0  0  0  0  0  0  0  0  0  # atno 11005 bound_to 11000
  146.3519  140.0179  142.8661 LP  0  0  0  0  0  0  0  0  0  0  0  0  # atno 17320 bound_to 7965
  145.1512  140.9624  143.4432 LP  0  0  0  0  0  0  0  0  0  0  0  0  # atno 17321 bound_to 7965
  140.7534  143.6164  150.8556 LP  0  0  0  0  0  0  0  0  0  0  0  0  # atno 17342 bound_to 10162
  139.9811  143.5950  152.2942 LP  0  0  0  0  0  0  0  0  0  0  0  0  # atno 17343 bound_to 10162
  157.6334  130.8748  149.9316 LP  0  0  0  0  0  0  0  0  0  0  0  0  # atno 17370 bound_to 10713
  156.0859  130.3668  150.0488 LP  0  0  0  0  0  0  0  0  0  0  0  0  # atno 17371 bound_to 10713
  140.0349  134.9883  157.0852 LP  0  0  0  0  0  0  0  0  0  0  0  0  # atno 17394 bound_to 11000
  140.4226  134.1865  155.7165 LP  0  0  0  0  0  0  0  0  0  0  0  0  # atno 17395 bound_to 11000

$$$$
