AV-unprocessed.smi:148|AV-procd|sdf|1209|dock8
  -GOLD-   2262018383D 1   1.00000     0.00000
 Structure written by MMmdl.
 63 67  0  0  0  0  0  0  0  0  1 V2000
  148.1312  131.9706  161.2933 O   0  0  0  0  0  0  0  0  0  0  0  0
  147.2582  132.4176  160.2772 C   0  0  0  0  0  0  0  0  0  0  0  0
  147.8225  133.6834  159.5900 C   0  0  1  0  0  0  0  0  0  0  0  0
  146.8938  134.1293  158.4326 C   0  0  0  0  0  0  0  0  0  0  0  0
  146.8817  133.2031  157.3144 N   0  0  0  0  0  0  0  0  0  0  0  0
  146.2641  131.9730  157.2667 C   0  0  0  0  0  0  0  0  0  0  0  0
  146.3914  131.3297  156.1381 N   0  0  0  0  0  0  0  0  0  0  0  0
  147.1609  132.1796  155.3544 C   0  0  0  0  0  0  0  0  0  0  0  0
  147.6741  132.1078  154.0337 C   0  0  0  0  0  0  0  0  0  0  0  0
  147.4411  131.0431  153.2364 N   0  0  0  0  0  0  0  0  0  0  0  0
  147.7971  129.8022  153.9274 C   0  0  0  0  0  0  0  0  0  0  0  0
  147.8519  128.6201  152.9554 C   0  0  0  0  0  0  0  0  0  0  0  0
  146.5180  128.4938  152.2177 C   0  0  0  0  0  0  0  0  0  0  0  0
  146.1788  129.8166  151.5174 C   0  0  0  0  0  0  0  0  0  0  0  0
  146.1655  131.0264  152.4913 C   0  0  2  0  0  0  0  0  0  0  0  0
  145.8688  132.3576  151.7140 C   0  0  1  0  0  0  0  0  0  0  0  0
  144.6651  132.3076  150.7543 C   0  0  0  0  0  0  0  0  0  0  0  0
  144.3001  133.7639  150.4447 C   0  0  0  0  0  0  0  0  0  0  0  0
  144.9439  134.6096  151.5491 C   0  0  0  0  0  0  0  0  0  0  0  0
  145.5435  133.6171  152.5511 C   0  0  1  0  0  0  0  0  0  0  0  0
  144.5777  133.3370  153.5475 O   0  0  0  0  0  0  0  0  0  0  0  0
  148.4134  133.1531  153.5765 N   0  0  0  0  0  0  0  0  0  0  0  0
  148.6451  134.2015  154.3727 C   0  0  0  0  0  0  0  0  0  0  0  0
  148.2348  134.4047  155.6272 N   0  0  0  0  0  0  0  0  0  0  0  0
  147.4865  133.3579  156.0803 C   0  0  0  0  0  0  0  0  0  0  0  0
  148.1415  134.8380  160.5814 C   0  0  2  0  0  0  0  0  0  0  0  0
  147.2234  134.9351  161.8015 C   0  0  0  0  0  0  0  0  0  0  0  0
  146.7833  136.3986  161.8225 C   0  0  0  0  0  0  0  0  0  0  0  0
  147.8000  137.0733  161.0999 O   0  0  0  0  0  0  0  0  0  0  0  0
  148.1158  136.2527  159.9879 C   0  0  0  0  0  0  0  0  0  0  0  0
  148.9613  131.7465  160.9011 H   0  0  0  0  0  0  0  0  0  0  0  0
  147.1136  131.6097  159.5599 H   0  0  0  0  0  0  0  0  0  0  0  0
  146.2903  132.6066  160.7390 H   0  0  0  0  0  0  0  0  0  0  0  0
  148.7793  133.4045  159.1457 H   0  0  0  0  0  0  0  0  0  0  0  0
  145.8676  134.2363  158.7854 H   0  0  0  0  0  0  0  0  0  0  0  0
  147.1962  135.1102  158.0637 H   0  0  0  0  0  0  0  0  0  0  0  0
  145.7041  131.5683  158.0971 H   0  0  0  0  0  0  0  0  0  0  0  0
  148.7657  129.9124  154.4184 H   0  0  0  0  0  0  0  0  0  0  0  0
  147.0648  129.5978  154.7102 H   0  0  0  0  0  0  0  0  0  0  0  0
  148.6610  128.7678  152.2388 H   0  0  0  0  0  0  0  0  0  0  0  0
  148.0737  127.6993  153.4954 H   0  0  0  0  0  0  0  0  0  0  0  0
  146.5661  127.6836  151.4898 H   0  0  0  0  0  0  0  0  0  0  0  0
  145.7274  128.2362  152.9235 H   0  0  0  0  0  0  0  0  0  0  0  0
  146.9031  129.9968  150.7216 H   0  0  0  0  0  0  0  0  0  0  0  0
  145.2102  129.6968  151.0333 H   0  0  0  0  0  0  0  0  0  0  0  0
  145.3660  130.8500  153.2114 H   0  0  0  0  0  0  0  0  0  0  0  0
  146.7422  132.5844  151.0994 H   0  0  0  0  0  0  0  0  0  0  0  0
  144.8789  131.7472  149.8435 H   0  0  0  0  0  0  0  0  0  0  0  0
  143.8189  131.8255  151.2463 H   0  0  0  0  0  0  0  0  0  0  0  0
  144.6918  134.0607  149.4710 H   0  0  0  0  0  0  0  0  0  0  0  0
  143.2182  133.8960  150.4162 H   0  0  0  0  0  0  0  0  0  0  0  0
  145.7442  135.2109  151.1155 H   0  0  0  0  0  0  0  0  0  0  0  0
  144.2398  135.3036  152.0101 H   0  0  0  0  0  0  0  0  0  0  0  0
  146.4166  134.0581  153.0271 H   0  0  0  0  0  0  0  0  0  0  0  0
  144.2585  132.4573  153.4163 H   0  0  0  0  0  0  0  0  0  0  0  0
  149.2471  134.9891  153.9439 H   0  0  0  0  0  0  0  0  0  0  0  0
  149.1407  134.6825  160.9892 H   0  0  0  0  0  0  0  0  0  0  0  0
  146.3700  134.2583  161.7742 H   0  0  0  0  0  0  0  0  0  0  0  0
  147.7876  134.6994  162.7050 H   0  0  0  0  0  0  0  0  0  0  0  0
  145.8304  136.5219  161.3054 H   0  0  0  0  0  0  0  0  0  0  0  0
  146.6771  136.7923  162.8334 H   0  0  0  0  0  0  0  0  0  0  0  0
  149.0685  136.5367  159.5407 H   0  0  0  0  0  0  0  0  0  0  0  0
  147.3387  136.3731  159.2334 H   0  0  0  0  0  0  0  0  0  0  0  0
  1  2  1  0  0  0  0
  1 31  1  0  0  0  0
  2  3  1  0  0  0  0
  2 32  1  0  0  0  0
  2 33  1  0  0  0  0
  3  4  1  0  0  0  0
  3 26  1  0  0  0  0
  3 34  1  0  0  0  0
  4  5  1  0  0  0  0
  4 35  1  0  0  0  0
  4 36  1  0  0  0  0
  5 25  1  0  0  0  0
  5  6  1  0  0  0  0
  6  7  2  0  0  0  0
  6 37  1  0  0  0  0
  7  8  1  0  0  0  0
  8 25  2  0  0  0  0
  8  9  1  0  0  0  0
  9 10  1  0  0  0  0
  9 22  2  0  0  0  0
 10 15  1  0  0  0  0
 10 11  1  0  0  0  0
 11 12  1  0  0  0  0
 11 38  1  0  0  0  0
 11 39  1  0  0  0  0
 12 13  1  0  0  0  0
 12 40  1  0  0  0  0
 12 41  1  0  0  0  0
 13 14  1  0  0  0  0
 13 42  1  0  0  0  0
 13 43  1  0  0  0  0
 14 15  1  0  0  0  0
 14 44  1  0  0  0  0
 14 45  1  0  0  0  0
 15 16  1  0  0  0  0
 15 46  1  0  0  0  0
 16 20  1  0  0  0  0
 16 17  1  0  0  0  0
 16 47  1  0  0  0  0
 17 18  1  0  0  0  0
 17 48  1  0  0  0  0
 17 49  1  0  0  0  0
 18 19  1  0  0  0  0
 18 50  1  0  0  0  0
 18 51  1  0  0  0  0
 19 20  1  0  0  0  0
 19 52  1  0  0  0  0
 19 53  1  0  0  0  0
 20 21  1  0  0  0  0
 20 54  1  0  0  0  0
 21 55  1  0  0  0  0
 22 23  1  0  0  0  0
 23 24  2  0  0  0  0
 23 56  1  0  0  0  0
 24 25  1  0  0  0  0
 26 30  1  0  0  0  0
 26 27  1  0  0  0  0
 26 57  1  0  0  0  0
 27 28  1  0  0  0  0
 27 58  1  0  0  0  0
 27 59  1  0  0  0  0
 28 29  1  0  0  0  0
 28 60  1  0  0  0  0
 28 61  1  0  0  0  0
 29 30  1  0  0  0  0
 30 62  1  0  0  0  0
 30 63  1  0  0  0  0
M  END
> <s_m_source_file>
AV-unprocessed.smi

> <i_m_source_file_index>
148

> <i_lp_mmshare_version>
43012

> <i_f3d_flags>
0

> <s_epik_input>
W0NIMl0xT1tDSDJdW0NIMl1bQ0BIXTFbQ0BIXShbQ0gyXVtPSF0pW0NIMl1uKFtjSF1uMiljKGMyMyluW2NIXW5jM040W0NIMl1bQ0gyXVtDSDJdW0NIMl1bQ0BIXTRbQ0BASF01W0NIMl1bQ0gyXVtDSDJdW0NASF01W09IXQ==

> <s_epik_cmdline>
J2VwaWtfcHl0aG9uJywgJy1waCcsICc3LjAnLCAnLXRuJywgJzgnLCAnLW1hJywgJzIwMCcsICctbWV0YWxfYmluZGluZycsICctaW1hZScsICc8aW5maWxlLm1hZT4nLCAnLW9tYWUnLCAnPG91dGZpbGUubWFlPic=

> <r_lp_tautomer_probability>
1

> <r_epik_Ionization_Penalty>
0.00556303

> <r_epik_Ionization_Penalty_Charging>
0

> <r_epik_Ionization_Penalty_Neutral>
0.00556303

> <r_epik_State_Penalty>
0.00401767

> <r_epik_Charging_Adjusted_Penalty>
0.00401767

> <i_epik_Tot_Q>
0

> <i_epik_Tot_abs_Q>
0

> <r_epik_Metal_State_Penalty>
-0

> <b_epik_Metal_Only>
0

> <s_lp_Force_Field>
OPLS_2005

> <r_lp_Energy>
71.0858

> <b_lp_Chiralities_Consistent>
1

> <s_lp_Variant>
AV-unprocessed.smi:148-8

> <Gold.Version>
5.8.1

> <Gold.Id.Protein>
6NUR|6NUR_protein|mol2

> <Gold.PLP.Fitness>
47.0826

> <Gold.PLP.PLP>
-40.3405

> <Gold.PLP.part.hbond>
-3.0000

> <Gold.PLP.part.metal>
0.0000

> <Gold.PLP.part.buried>
-6.9871

> <Gold.PLP.part.nonpolar>
-30.6121

> <Gold.PLP.part.repulsive>
0.4215

> <Gold.PLP.ligand.clash>
0.0000

> <Gold.PLP.ligand.torsion>
1.4974

> <Gold.PLP.Chemscore.Hbond>
1.9980

> <Gold.PLP.Chemscore.CHOScore>
0.9696

> <Gold.PLP.Chemscore.Metal>
0.0000

> <Gold.Chemscore.Hbonds>
donor molecule, donor type, donor heavy atom, donor atom, acceptor molecule, acceptor atom, score
      L1  H    21    55       P1 10957  0.19
      P1  H  6931  6943       L1    29  0.99
      P1  H  6934  6947       L1    29  0.80
      L1  C    23    56       P1  7948  1.00

> <Gold.PLP.Chemscore.Internal.Correction>
0.8342

> <Gold.Rescore>
     Score         DG    S(hbond)    S(metal)    S(lipo)     H(rot)  DE(clash)    DE(int)     intcor
     12.02     -14.60       1.72        0.00     101.53       3.32       0.11       2.47       ----

> <Gold.Chemscore.Fitness>
12.0192

> <Gold.Chemscore.DG>
-14.5971

> <Gold.Chemscore.ZeroCoef>
-5.4800

> <Gold.Chemscore.Hbond>
1.7179

> <Gold.Chemscore.Metal>
0.0000

> <Gold.Chemscore.Lipo>
101.5336

> <Gold.Chemscore.Internal_Hbond>
0.0000

> <Gold.Chemscore.DEClash>
0.1071

> <Gold.Chemscore.DEInternal>
2.4708

> <Gold.Chemscore.Rot>
3.3203

> <Gold.Chemscore.Internal.Correction>
   9.000000E+99

> <Gold.Chemscore.Hbonds>
donor molecule, donor type, donor heavy atom, donor atom, acceptor molecule, acceptor atom, score
      L1  H    21    55       P1 10957  0.04
      P1  H  6931  6943       L1    29  0.93
      P1  H  6934  6947       L1    29  0.42

> <Gold.Chemscore.Hbond.Weighted>
-5.7377

> <Gold.Chemscore.Metal.Weighted>
-0.0000

> <Gold.Chemscore.Lipo.Weighted>
-11.8794

> <Gold.Chemscore.Internal_Hbond.Weighted>
0.0000

> <Gold.Chemscore.DEClash.Weighted>
0.1071

> <Gold.Chemscore.DEInternal.Weighted>
2.4708

> <Gold.Chemscore.Rot.Weighted>
8.5000

> <Gold.Chemscore.Internal.Correction.Weighted>
   9.000000E+99

> <Gold.Protein.RotatedTorsions>
[ 6907 6896 6895 6894 ] final  -54.79 input  -60.11 | X-H torsion
[ 7974 7965 7964 7962 ] final -156.29 input  175.53 | X-H torsion
[ 8008 7997 7996 7995 ] final   41.82 input   59.86 | X-H torsion
[ 10167 10162 10161 10158 ] final   -4.18 input  -65.29 | X-H torsion
[ 10718 10713 10712 10709 ] final -176.37 input   66.30 | X-H torsion
[ 10763 10752 10751 10750 ] final   71.53 input  -60.55 | X-H torsion
[ 11005 11000 10999 10996 ] final   -8.43 input  -57.11 | X-H torsion

> <Gold.Protein.ActiveResidues>
 VAL166  LYS551  ARG553  GLY616  TRP617  ASP618  TYR619  PRO620  LYS621  CYS622 
 ASP623  PHE694  ASN695  SER759  ASP760  ASP761  ALA762  ILE779  LEU786  VAL792 
 PHE793  MET794  SER795  GLU796  ALA797  LYS798  CYS799  TRP800  GLU811  SER814 

> <Gold.Protein.RotatedAtoms>
  150.8307  134.7559  159.6850 H   0  0  0  0  0  0  0  0  0  0  0  0  # atno 6907 bound_to 6896
  152.4412  134.5584  159.9897 H   0  0  0  0  0  0  0  0  0  0  0  0  # atno 6908 bound_to 6896
  151.5746  133.3348  159.3032 H   0  0  0  0  0  0  0  0  0  0  0  0  # atno 6909 bound_to 6896
  144.7600  140.4130  143.5984 H   0  0  0  0  0  0  0  0  0  0  0  0  # atno 7974 bound_to 7965
  155.2759  140.3369  155.4262 H   0  0  0  0  0  0  0  0  0  0  0  0  # atno 8008 bound_to 7997
  156.2112  140.1770  156.7732 H   0  0  0  0  0  0  0  0  0  0  0  0  # atno 8009 bound_to 7997
  154.5689  140.0673  156.8918 H   0  0  0  0  0  0  0  0  0  0  0  0  # atno 8010 bound_to 7997
  140.6918  143.6453  150.8398 H   0  0  0  0  0  0  0  0  0  0  0  0  # atno 10167 bound_to 10162
  156.8137  130.9595  151.3115 H   0  0  0  0  0  0  0  0  0  0  0  0  # atno 10718 bound_to 10713
  153.0404  135.5133  154.7607 H   0  0  0  0  0  0  0  0  0  0  0  0  # atno 10763 bound_to 10752
  154.6549  135.2930  154.9942 H   0  0  0  0  0  0  0  0  0  0  0  0  # atno 10764 bound_to 10752
  154.0814  135.6663  153.4891 H   0  0  0  0  0  0  0  0  0  0  0  0  # atno 10765 bound_to 10752
  140.7234  133.8809  155.8838 H   0  0  0  0  0  0  0  0  0  0  0  0  # atno 11005 bound_to 11000
  145.6652  139.1588  143.2786 LP  0  0  0  0  0  0  0  0  0  0  0  0  # atno 17320 bound_to 7965
  146.1652  140.6729  142.9259 LP  0  0  0  0  0  0  0  0  0  0  0  0  # atno 17321 bound_to 7965
  140.0167  143.5585  152.2817 LP  0  0  0  0  0  0  0  0  0  0  0  0  # atno 17342 bound_to 10162
  139.6329  144.7646  151.2499 LP  0  0  0  0  0  0  0  0  0  0  0  0  # atno 17343 bound_to 10162
  157.6493  130.8870  149.9600 LP  0  0  0  0  0  0  0  0  0  0  0  0  # atno 17370 bound_to 10713
  156.1029  130.3654  150.0185 LP  0  0  0  0  0  0  0  0  0  0  0  0  # atno 17371 bound_to 10713
  140.9983  134.1184  157.4342 LP  0  0  0  0  0  0  0  0  0  0  0  0  # atno 17394 bound_to 11000
  139.8843  135.0061  156.6357 LP  0  0  0  0  0  0  0  0  0  0  0  0  # atno 17395 bound_to 11000

$$$$
