AV-unprocessed.smi:552|AV-procd|sdf|2902|dock10
  -GOLD-   2262023393D 1   1.00000     0.00000
 Structure written by MMmdl.
 42 43  0  0  0  0  0  0  0  0  1 V2000
  150.1570  131.7086  155.4559 C   0  0  0  0  0  0  0  0  0  0  0  0
  150.3535  133.2252  155.3166 C   0  0  0  0  0  0  0  0  0  0  0  0
  149.1658  133.9444  154.6495 C   0  0  2  0  0  0  0  0  0  0  0  0
  148.8074  133.3093  153.2968 C   0  0  0  0  0  0  0  0  0  0  0  0
  149.4706  135.3624  154.4686 N   0  0  0  0  0  0  0  0  0  0  0  0
  149.9020  136.1942  155.4276 C   0  0  0  0  0  0  0  0  0  0  0  0
  150.0882  135.8500  156.5946 O   0  0  0  0  0  0  0  0  0  0  0  0
  150.0766  137.4378  154.9484 N   0  0  0  0  0  0  0  0  0  0  0  0
  150.5304  138.5915  155.6421 C   0  0  0  0  0  0  0  0  0  0  0  0
  150.5287  139.8966  155.0987 C   0  0  0  0  0  0  0  0  0  0  0  0
  150.9866  140.9661  155.8917 C   0  0  0  0  0  0  0  0  0  0  0  0
  151.4321  140.7115  157.2105 C   0  0  0  0  0  0  0  0  0  0  0  0
  151.9023  141.7687  158.0209 N   0  0  0  0  0  0  0  0  0  0  0  0
  151.2205  143.0591  157.9285 C   0  0  0  0  0  0  0  0  0  0  0  0
  152.0331  144.1496  158.6468 C   0  0  0  0  0  0  0  0  0  0  0  0
  152.2815  143.7550  159.9917 O   0  0  0  0  0  0  0  0  0  0  0  0
  153.0450  142.5554  160.0576 C   0  0  0  0  0  0  0  0  0  0  0  0
  152.2717  141.4065  159.3875 C   0  0  0  0  0  0  0  0  0  0  0  0
  151.4105  139.4610  157.7342 N   0  0  0  0  0  0  0  0  0  0  0  0
  150.9696  138.4388  156.9717 C   0  0  0  0  0  0  0  0  0  0  0  0
  151.0408  131.2435  155.8929 H   0  0  0  0  0  0  0  0  0  0  0  0
  149.9848  131.2447  154.4843 H   0  0  0  0  0  0  0  0  0  0  0  0
  149.3082  131.4696  156.0970 H   0  0  0  0  0  0  0  0  0  0  0  0
  150.5426  133.6567  156.3003 H   0  0  0  0  0  0  0  0  0  0  0  0
  151.2552  133.4044  154.7299 H   0  0  0  0  0  0  0  0  0  0  0  0
  148.3033  133.8436  155.3110 H   0  0  0  0  0  0  0  0  0  0  0  0
  148.5584  132.2541  153.4129 H   0  0  0  0  0  0  0  0  0  0  0  0
  149.6367  133.3797  152.5923 H   0  0  0  0  0  0  0  0  0  0  0  0
  147.9444  133.8001  152.8454 H   0  0  0  0  0  0  0  0  0  0  0  0
  149.3429  135.7366  153.5397 H   0  0  0  0  0  0  0  0  0  0  0  0
  149.7936  137.5903  153.9915 H   0  0  0  0  0  0  0  0  0  0  0  0
  150.1710  140.1006  154.1014 H   0  0  0  0  0  0  0  0  0  0  0  0
  150.9720  141.9660  155.4849 H   0  0  0  0  0  0  0  0  0  0  0  0
  151.0844  143.3420  156.8840 H   0  0  0  0  0  0  0  0  0  0  0  0
  150.2294  142.9760  158.3767 H   0  0  0  0  0  0  0  0  0  0  0  0
  152.9764  144.3360  158.1305 H   0  0  0  0  0  0  0  0  0  0  0  0
  151.4804  145.0892  158.6486 H   0  0  0  0  0  0  0  0  0  0  0  0
  154.0149  142.7020  159.5793 H   0  0  0  0  0  0  0  0  0  0  0  0
  153.2395  142.3165  161.1033 H   0  0  0  0  0  0  0  0  0  0  0  0
  151.3628  141.1908  159.9508 H   0  0  0  0  0  0  0  0  0  0  0  0
  152.8835  140.5065  159.4182 H   0  0  0  0  0  0  0  0  0  0  0  0
  150.9743  137.4652  157.4398 H   0  0  0  0  0  0  0  0  0  0  0  0
  1  2  1  0  0  0  0
  1 21  1  0  0  0  0
  1 22  1  0  0  0  0
  1 23  1  0  0  0  0
  2  3  1  0  0  0  0
  2 24  1  0  0  0  0
  2 25  1  0  0  0  0
  3  4  1  0  0  0  0
  3  5  1  0  0  0  0
  3 26  1  0  0  0  0
  4 27  1  0  0  0  0
  4 28  1  0  0  0  0
  4 29  1  0  0  0  0
  5  6  1  0  0  0  0
  5 30  1  0  0  0  0
  6  7  2  0  0  0  0
  6  8  1  0  0  0  0
  8  9  1  0  0  0  0
  8 31  1  0  0  0  0
  9 20  1  0  0  0  0
  9 10  2  0  0  0  0
 10 11  1  0  0  0  0
 10 32  1  0  0  0  0
 11 12  2  0  0  0  0
 11 33  1  0  0  0  0
 12 13  1  0  0  0  0
 12 19  1  0  0  0  0
 13 18  1  0  0  0  0
 13 14  1  0  0  0  0
 14 15  1  0  0  0  0
 14 34  1  0  0  0  0
 14 35  1  0  0  0  0
 15 16  1  0  0  0  0
 15 36  1  0  0  0  0
 15 37  1  0  0  0  0
 16 17  1  0  0  0  0
 17 18  1  0  0  0  0
 17 38  1  0  0  0  0
 17 39  1  0  0  0  0
 18 40  1  0  0  0  0
 18 41  1  0  0  0  0
 19 20  2  0  0  0  0
 20 42  1  0  0  0  0
M  END
> <s_m_source_file>
AV-unprocessed.smi

> <i_m_source_file_index>
552

> <i_lp_mmshare_version>
43012

> <i_f3d_flags>
0

> <s_epik_input>
W0NIM11bQ0gyXVtDQEhdKFtDSDNdKVtOSF1DKD1PKVtOSF1jMVtjSF1bY0hdYyhuW2NIXTEpTjJbQ0gyXVtDSDJdT1tDSDJdW0NIMl0y

> <s_epik_cmdline>
J2VwaWtfcHl0aG9uJywgJy1waCcsICc3LjAnLCAnLXRuJywgJzgnLCAnLW1hJywgJzIwMCcsICctbWV0YWxfYmluZGluZycsICctaW1hZScsICc8aW5maWxlLm1hZT4nLCAnLW9tYWUnLCAnPG91dGZpbGUubWFlPic=

> <r_lp_tautomer_probability>
1

> <r_epik_Ionization_Penalty>
0.00215965

> <r_epik_Ionization_Penalty_Charging>
0

> <r_epik_Ionization_Penalty_Neutral>
0.00215965

> <r_epik_State_Penalty>
0.00145276

> <r_epik_Charging_Adjusted_Penalty>
0.00145276

> <i_epik_Tot_Q>
0

> <i_epik_Tot_abs_Q>
0

> <r_epik_Metal_State_Penalty>
-0

> <b_epik_Metal_Only>
0

> <s_lp_Force_Field>
OPLS_2005

> <r_lp_Energy>
20.9108

> <b_lp_Chiralities_Consistent>
1

> <s_lp_Variant>
AV-unprocessed.smi:552-1

> <Gold.Version>
5.8.1

> <Gold.Id.Protein>
6NUR|6NUR_protein|mol2

> <Gold.PLP.Fitness>
38.1074

> <Gold.PLP.PLP>
-35.5277

> <Gold.PLP.part.hbond>
-1.0000

> <Gold.PLP.part.metal>
0.0000

> <Gold.PLP.part.buried>
-3.3827

> <Gold.PLP.part.nonpolar>
-29.9714

> <Gold.PLP.part.repulsive>
0.0929

> <Gold.PLP.ligand.clash>
0.0000

> <Gold.PLP.ligand.torsion>
0.3852

> <Gold.PLP.Chemscore.Hbond>
1.0000

> <Gold.PLP.Chemscore.CHOScore>
0.0000

> <Gold.PLP.Chemscore.Metal>
0.0000

> <Gold.Chemscore.Hbonds>
donor molecule, donor type, donor heavy atom, donor atom, acceptor molecule, acceptor atom, score
      L1  H     5    30       P1  7948  1.00

> <Gold.PLP.Chemscore.Internal.Correction>
0.3502

> <Gold.Rescore>
     Score         DG    S(hbond)    S(metal)    S(lipo)     H(rot)  DE(clash)    DE(int)     intcor
     15.20     -17.08       1.69        0.00      80.57       1.35       0.05       1.83       ----

> <Gold.Chemscore.Fitness>
15.1963

> <Gold.Chemscore.DG>
-17.0753

> <Gold.Chemscore.ZeroCoef>
-5.4800

> <Gold.Chemscore.Hbond>
1.6862

> <Gold.Chemscore.Metal>
0.0000

> <Gold.Chemscore.Lipo>
80.5732

> <Gold.Chemscore.Internal_Hbond>
0.0000

> <Gold.Chemscore.DEClash>
0.0524

> <Gold.Chemscore.DEInternal>
1.8267

> <Gold.Chemscore.Rot>
1.3530

> <Gold.Chemscore.Internal.Correction>
   9.000000E+99

> <Gold.Chemscore.Hbonds>
donor molecule, donor type, donor heavy atom, donor atom, acceptor molecule, acceptor atom, score
      L1  H     5    30       P1  7948  0.45

> <Gold.Chemscore.Hbond.Weighted>
-5.6321

> <Gold.Chemscore.Metal.Weighted>
-0.0000

> <Gold.Chemscore.Lipo.Weighted>
-9.4271

> <Gold.Chemscore.Internal_Hbond.Weighted>
0.0000

> <Gold.Chemscore.DEClash.Weighted>
0.0524

> <Gold.Chemscore.DEInternal.Weighted>
1.8267

> <Gold.Chemscore.Rot.Weighted>
3.4638

> <Gold.Chemscore.Internal.Correction.Weighted>
   9.000000E+99

> <Gold.Protein.RotatedTorsions>
[ 6907 6896 6895 6894 ] final   57.77 input  -60.11 | X-H torsion
[ 7974 7965 7964 7962 ] final   72.93 input  175.53 | X-H torsion
[ 8008 7997 7996 7995 ] final -110.02 input   59.86 | X-H torsion
[ 10167 10162 10161 10158 ] final  -58.47 input  -65.29 | X-H torsion
[ 10718 10713 10712 10709 ] final  100.97 input   66.30 | X-H torsion
[ 10763 10752 10751 10750 ] final  -24.05 input  -60.55 | X-H torsion
[ 11005 11000 10999 10996 ] final  -53.72 input  -57.11 | X-H torsion

> <Gold.Protein.ActiveResidues>
 VAL166  LYS551  ARG553  GLY616  TRP617  ASP618  TYR619  PRO620  LYS621  CYS622 
 ASP623  PHE694  ASN695  SER759  ASP760  ASP761  ALA762  ILE779  LEU786  VAL792 
 PHE793  MET794  SER795  GLU796  ALA797  LYS798  CYS799  TRP800  GLU811  SER814 

> <Gold.Protein.RotatedAtoms>
  152.3763  134.6659  160.0158 H   0  0  0  0  0  0  0  0  0  0  0  0  # atno 6907 bound_to 6896
  151.6936  133.3305  159.3257 H   0  0  0  0  0  0  0  0  0  0  0  0  # atno 6908 bound_to 6896
  150.7712  134.6612  159.6385 H   0  0  0  0  0  0  0  0  0  0  0  0  # atno 6909 bound_to 6896
  145.7473  139.2745  143.1452 H   0  0  0  0  0  0  0  0  0  0  0  0  # atno 7974 bound_to 7965
  154.9682  140.0398  157.2222 H   0  0  0  0  0  0  0  0  0  0  0  0  # atno 8008 bound_to 7997
  154.7826  140.2821  155.6030 H   0  0  0  0  0  0  0  0  0  0  0  0  # atno 8009 bound_to 7997
  156.2938  140.2589  156.2654 H   0  0  0  0  0  0  0  0  0  0  0  0  # atno 8010 bound_to 7997
  140.6195  143.2414  151.5515 H   0  0  0  0  0  0  0  0  0  0  0  0  # atno 10167 bound_to 10162
  157.6841  131.0713  150.5181 H   0  0  0  0  0  0  0  0  0  0  0  0  # atno 10718 bound_to 10713
  153.6776  135.6968  153.5127 H   0  0  0  0  0  0  0  0  0  0  0  0  # atno 10763 bound_to 10752
  153.2509  135.4275  155.0796 H   0  0  0  0  0  0  0  0  0  0  0  0  # atno 10764 bound_to 10752
  154.8409  135.3531  154.6320 H   0  0  0  0  0  0  0  0  0  0  0  0  # atno 10765 bound_to 10752
  141.0990  133.6620  156.4214 H   0  0  0  0  0  0  0  0  0  0  0  0  # atno 11005 bound_to 11000
  146.0391  140.8183  142.9838 LP  0  0  0  0  0  0  0  0  0  0  0  0  # atno 17320 bound_to 7965
  144.6857  140.2883  143.7282 LP  0  0  0  0  0  0  0  0  0  0  0  0  # atno 17321 bound_to 7965
  139.5427  144.2605  152.1382 LP  0  0  0  0  0  0  0  0  0  0  0  0  # atno 17342 bound_to 10162
  140.1822  144.4834  150.6522 LP  0  0  0  0  0  0  0  0  0  0  0  0  # atno 17343 bound_to 10162
  156.5495  130.4228  149.6114 LP  0  0  0  0  0  0  0  0  0  0  0  0  # atno 17370 bound_to 10713
  156.2915  130.7127  151.1976 LP  0  0  0  0  0  0  0  0  0  0  0  0  # atno 17371 bound_to 10713
  140.5069  134.6433  157.5269 LP  0  0  0  0  0  0  0  0  0  0  0  0  # atno 17394 bound_to 11000
  139.9835  134.7098  155.9815 LP  0  0  0  0  0  0  0  0  0  0  0  0  # atno 17395 bound_to 11000

$$$$
