AV-unprocessed.smi:1047|AV-procd|sdf|4584|dock2
  -GOLD-   22720 3 53D 1   1.00000     0.00000
 Structure written by MMmdl.
 58 60  0  0  0  0  0  0  0  0  4 V2000
  147.5075  132.1719  160.8392 C   0  0  0  0  0  0  0  0  0  0  0  0
  147.6002  133.1314  162.0341 C   0  0  0  0  0  0  0  0  0  0  0  0
  147.1820  134.5135  161.6888 N   0  3  1  0  0  0  0  0  0  0  0  0
  147.3258  135.4463  162.8317 C   0  0  0  0  0  0  0  0  0  0  0  0
  146.8262  136.8497  162.4502 C   0  0  0  0  0  0  0  0  0  0  0  0
  147.5412  137.3210  161.3142 O   0  0  0  0  0  0  0  0  0  0  0  0
  147.3593  136.4839  160.1772 C   0  0  1  0  0  0  0  0  0  0  0  0
  148.0569  137.1310  158.9681 C   0  0  0  0  0  0  0  0  0  0  0  0
  149.4502  137.5188  159.2716 N   0  3  0  0  0  0  0  0  0  0  0  0
  149.9661  138.6240  158.4390 C   0  0  0  0  0  0  0  0  0  0  0  0
  151.4820  138.4944  158.2140 C   0  0  1  0  0  0  0  0  0  0  0  0
  151.8043  137.1223  158.0947 O   0  0  0  0  0  0  0  0  0  0  0  0
  151.9393  139.2482  156.9493 C   0  0  0  0  0  0  0  0  0  0  0  0
  151.4168  140.6209  156.8764 N   0  0  0  0  0  0  0  0  0  0  0  0
  150.6446  141.2061  155.9202 C   0  0  0  0  0  0  0  0  0  0  0  0
  150.4320  142.4975  156.2961 N   0  3  0  0  0  0  0  0  0  0  0  0
  151.0789  142.7426  157.5089 C   0  0  0  0  0  0  0  0  0  0  0  0
  151.1533  143.8942  158.2833 C   0  0  0  0  0  0  0  0  0  0  0  0
  151.8965  143.8181  159.4827 C   0  0  0  0  0  0  0  0  0  0  0  0
  151.9951  145.0582  160.3546 C   0  0  0  0  0  0  0  0  0  0  0  0
  152.5372  142.6125  159.8690 C   0  0  0  0  0  0  0  0  0  0  0  0
  153.3294  142.5410  161.1633 C   0  0  0  0  0  0  0  0  0  0  0  0
  152.4531  141.4531  159.0652 C   0  0  0  0  0  0  0  0  0  0  0  0
  151.7148  141.5438  157.8871 C   0  0  0  0  0  0  0  0  0  0  0  0
  147.8638  135.0583  160.4882 C   0  0  0  0  0  0  0  0  0  0  0  0
  147.7337  131.1515  161.1502 H   0  0  0  0  0  0  0  0  0  0  0  0
  148.2124  132.4307  160.0497 H   0  0  0  0  0  0  0  0  0  0  0  0
  146.5047  132.1704  160.4109 H   0  0  0  0  0  0  0  0  0  0  0  0
  146.9478  132.7483  162.8202 H   0  0  0  0  0  0  0  0  0  0  0  0
  148.6105  133.1356  162.4462 H   0  0  0  0  0  0  0  0  0  0  0  0
  146.7568  135.0767  163.6858 H   0  0  0  0  0  0  0  0  0  0  0  0
  148.3718  135.4921  163.1390 H   0  0  0  0  0  0  0  0  0  0  0  0
  145.7548  136.8396  162.2437 H   0  0  0  0  0  0  0  0  0  0  0  0
  146.9835  137.5419  163.2772 H   0  0  0  0  0  0  0  0  0  0  0  0
  146.2919  136.4354  159.9531 H   0  0  0  0  0  0  0  0  0  0  0  0
  148.0501  136.4398  158.1244 H   0  0  0  0  0  0  0  0  0  0  0  0
  147.5035  138.0178  158.6565 H   0  0  0  0  0  0  0  0  0  0  0  0
  149.5047  137.7939  160.2421 H   0  0  0  0  0  0  0  0  0  0  0  0
  149.4401  138.6427  157.4833 H   0  0  0  0  0  0  0  0  0  0  0  0
  149.7472  139.5668  158.9424 H   0  0  0  0  0  0  0  0  0  0  0  0
  152.0135  138.8961  159.0781 H   0  0  0  0  0  0  0  0  0  0  0  0
  152.7387  137.0224  158.2003 H   0  0  0  0  0  0  0  0  0  0  0  0
  153.0265  139.2727  156.8712 H   0  0  0  0  0  0  0  0  0  0  0  0
  151.5834  138.7265  156.0597 H   0  0  0  0  0  0  0  0  0  0  0  0
  150.2706  140.7342  155.0229 H   0  0  0  0  0  0  0  0  0  0  0  0
  150.6625  144.8087  157.9829 H   0  0  0  0  0  0  0  0  0  0  0  0
  153.0365  145.3545  160.4835 H   0  0  0  0  0  0  0  0  0  0  0  0
  151.5639  144.8701  161.3384 H   0  0  0  0  0  0  0  0  0  0  0  0
  151.4617  145.9004  159.9124 H   0  0  0  0  0  0  0  0  0  0  0  0
  153.7519  141.5479  161.3196 H   0  0  0  0  0  0  0  0  0  0  0  0
  152.6894  142.7680  162.0164 H   0  0  0  0  0  0  0  0  0  0  0  0
  154.1535  143.2545  161.1485 H   0  0  0  0  0  0  0  0  0  0  0  0
  152.9397  140.5363  159.3636 H   0  0  0  0  0  0  0  0  0  0  0  0
  148.9412  135.0621  160.6600 H   0  0  0  0  0  0  0  0  0  0  0  0
  147.6800  134.4171  159.6266 H   0  0  0  0  0  0  0  0  0  0  0  0
  150.0492  136.7178  159.1299 H   0  0  0  0  0  0  0  0  0  0  0  0
  146.1943  134.4718  161.4796 H   0  0  0  0  0  0  0  0  0  0  0  0
  149.8877  143.1621  155.7606 H   0  0  0  0  0  0  0  0  0  0  0  0
  1  2  1  0  0  0  0
  1 26  1  0  0  0  0
  1 27  1  0  0  0  0
  1 28  1  0  0  0  0
  2  3  1  0  0  0  0
  2 29  1  0  0  0  0
  2 30  1  0  0  0  0
  3 25  1  0  0  0  0
  3  4  1  0  0  0  0
  3 57  1  0  0  0  0
  4  5  1  0  0  0  0
  4 31  1  0  0  0  0
  4 32  1  0  0  0  0
  5  6  1  0  0  0  0
  5 33  1  0  0  0  0
  5 34  1  0  0  0  0
  6  7  1  0  0  0  0
  7  8  1  0  0  0  0
  7 25  1  0  0  0  0
  7 35  1  0  0  0  0
  8  9  1  0  0  0  0
  8 36  1  0  0  0  0
  8 37  1  0  0  0  0
  9 10  1  0  0  0  0
  9 38  1  0  0  0  0
  9 56  1  0  0  0  0
 10 11  1  0  0  0  0
 10 39  1  0  0  0  0
 10 40  1  0  0  0  0
 11 12  1  0  0  0  0
 11 13  1  0  0  0  0
 11 41  1  0  0  0  0
 12 42  1  0  0  0  0
 13 14  1  0  0  0  0
 13 43  1  0  0  0  0
 13 44  1  0  0  0  0
 14 24  1  0  0  0  0
 14 15  1  0  0  0  0
 15 16  2  0  0  0  0
 15 45  1  0  0  0  0
 16 17  1  0  0  0  0
 16 58  1  0  0  0  0
 17 24  2  0  0  0  0
 17 18  1  0  0  0  0
 18 19  2  0  0  0  0
 18 46  1  0  0  0  0
 19 20  1  0  0  0  0
 19 21  1  0  0  0  0
 20 47  1  0  0  0  0
 20 48  1  0  0  0  0
 20 49  1  0  0  0  0
 21 22  1  0  0  0  0
 21 23  2  0  0  0  0
 22 50  1  0  0  0  0
 22 51  1  0  0  0  0
 22 52  1  0  0  0  0
 23 24  1  0  0  0  0
 23 53  1  0  0  0  0
 25 54  1  0  0  0  0
 25 55  1  0  0  0  0
M  CHG  1   3   1
M  CHG  1   9   1
M  CHG  1  16   1
M  END
> <s_m_source_file>
AV-unprocessed.smi

> <i_m_source_file_index>
1047

> <i_lp_mmshare_version>
43012

> <i_f3d_flags>
0

> <s_epik_input>
W0NIM11bQ0gyXU4xW0NIMl1bQ0gyXU9bQ0BIXShbQ0gyXTEpW0NIMl1bTkhdW0NIMl1bQ0BIXShbT0hdKVtDSDJdbihbY0hdbjIpYyhjMjMpW2NIXWMoW0NIM10pYyhbY0hdMylbQ0gzXQ==

> <s_epik_cmdline>
J2VwaWtfcHl0aG9uJywgJy1waCcsICc3LjAnLCAnLXRuJywgJzgnLCAnLW1hJywgJzIwMCcsICctbWV0YWxfYmluZGluZycsICctaW1hZScsICc8aW5maWxlLm1hZT4nLCAnLW9tYWUnLCAnPG91dGZpbGUubWFlPic=

> <r_epik_Ionization_Penalty>
1.6114

> <r_epik_Ionization_Penalty_Charging>
1.61139

> <r_epik_Ionization_Penalty_Neutral>
5.04732e-06

> <r_epik_State_Penalty>
1.63724

> <r_epik_Charging_Adjusted_Penalty>
3.24864

> <i_epik_Tot_Q>
3

> <i_epik_Tot_abs_Q>
3

> <r_epik_Metal_State_Penalty>
5.64594

> <b_epik_Metal_Only>
0

> <s_lp_Force_Field>
OPLS_2005

> <r_lp_Energy>
40.2566

> <b_lp_Chiralities_Consistent>
1

> <s_lp_Variant>
AV-unprocessed.smi:1047-25

> <Gold.Version>
5.8.1

> <Gold.Id.Protein>
6NUR|6NUR_protein|mol2

> <Gold.PLP.Fitness>
65.2230

> <Gold.PLP.PLP>
-54.9659

> <Gold.PLP.part.hbond>
-3.0000

> <Gold.PLP.part.metal>
0.0000

> <Gold.PLP.part.buried>
-8.1946

> <Gold.PLP.part.nonpolar>
-44.8111

> <Gold.PLP.part.repulsive>
0.3745

> <Gold.PLP.ligand.clash>
0.0000

> <Gold.PLP.ligand.torsion>
0.7413

> <Gold.PLP.Chemscore.Hbond>
3.8240

> <Gold.PLP.Chemscore.CHOScore>
0.0000

> <Gold.PLP.Chemscore.Metal>
0.0000

> <Gold.Chemscore.Hbonds>
donor molecule, donor type, donor heavy atom, donor atom, acceptor molecule, acceptor atom, score
      L1  H    16    58       P1  8028  2.00
      P1  H  6931  6943       L1     6  0.86
      P1  H  6934  6947       L1     6  0.88

> <Gold.PLP.Chemscore.Internal.Correction>
0.2677

> <Gold.Rescore>
     Score         DG    S(hbond)    S(metal)    S(lipo)     H(rot)  DE(clash)    DE(int)     intcor
     22.73     -23.56       2.55        0.00     142.76       2.78       0.17       0.65       ----

> <Gold.Chemscore.Fitness>
22.7329

> <Gold.Chemscore.DG>
-23.5604

> <Gold.Chemscore.ZeroCoef>
-5.4800

> <Gold.Chemscore.Hbond>
2.5468

> <Gold.Chemscore.Metal>
0.0000

> <Gold.Chemscore.Lipo>
142.7610

> <Gold.Chemscore.Internal_Hbond>
0.0000

> <Gold.Chemscore.DEClash>
0.1746

> <Gold.Chemscore.DEInternal>
0.6529

> <Gold.Chemscore.Rot>
2.7848

> <Gold.Chemscore.Internal.Correction>
   9.000000E+99

> <Gold.Chemscore.Hbonds>
donor molecule, donor type, donor heavy atom, donor atom, acceptor molecule, acceptor atom, score
      L1  H    16    58       P1  8028  0.95
      P1  H  6931  6943       L1     6  0.55
      P1  H  6934  6947       L1     6  0.61

> <Gold.Chemscore.Hbond.Weighted>
-8.5065

> <Gold.Chemscore.Metal.Weighted>
-0.0000

> <Gold.Chemscore.Lipo.Weighted>
-16.7030

> <Gold.Chemscore.Internal_Hbond.Weighted>
0.0000

> <Gold.Chemscore.DEClash.Weighted>
0.1746

> <Gold.Chemscore.DEInternal.Weighted>
0.6529

> <Gold.Chemscore.Rot.Weighted>
7.1291

> <Gold.Chemscore.Internal.Correction.Weighted>
   9.000000E+99

> <Gold.Protein.RotatedTorsions>
[ 6907 6896 6895 6894 ] final   -1.74 input  -60.11 | X-H torsion
[ 7974 7965 7964 7962 ] final -130.64 input  175.53 | X-H torsion
[ 8008 7997 7996 7995 ] final   58.50 input   59.86 | X-H torsion
[ 10167 10162 10161 10158 ] final  -16.14 input  -65.29 | X-H torsion
[ 10718 10713 10712 10709 ] final -171.51 input   66.30 | X-H torsion
[ 10763 10752 10751 10750 ] final -144.99 input  -60.55 | X-H torsion
[ 11005 11000 10999 10996 ] final  -25.86 input  -57.11 | X-H torsion

> <Gold.Protein.ActiveResidues>
 VAL166  LYS551  ARG553  GLY616  TRP617  ASP618  TYR619  PRO620  LYS621  CYS622 
 ASP623  PHE694  ASN695  SER759  ASP760  ASP761  ALA762  ILE779  LEU786  VAL792 
 PHE793  MET794  SER795  GLU796  ALA797  LYS798  CYS799  TRP800  GLU811  SER814 

> <Gold.Protein.RotatedAtoms>
  151.5412  135.1068  159.9926 H   0  0  0  0  0  0  0  0  0  0  0  0  # atno 6907 bound_to 6896
  152.4534  133.7671  159.6789 H   0  0  0  0  0  0  0  0  0  0  0  0  # atno 6908 bound_to 6896
  150.8470  133.7780  159.3064 H   0  0  0  0  0  0  0  0  0  0  0  0  # atno 6909 bound_to 6896
  144.9455  140.7286  143.4820 H   0  0  0  0  0  0  0  0  0  0  0  0  # atno 7974 bound_to 7965
  155.5510  140.3486  155.4468 H   0  0  0  0  0  0  0  0  0  0  0  0  # atno 8008 bound_to 7997
  156.0583  140.1334  156.9997 H   0  0  0  0  0  0  0  0  0  0  0  0  # atno 8009 bound_to 7997
  154.4467  140.0990  156.6463 H   0  0  0  0  0  0  0  0  0  0  0  0  # atno 8010 bound_to 7997
  140.7229  143.5147  150.9707 H   0  0  0  0  0  0  0  0  0  0  0  0  # atno 10167 bound_to 10162
  156.7420  130.9346  151.3110 H   0  0  0  0  0  0  0  0  0  0  0  0  # atno 10718 bound_to 10713
  154.8403  135.3425  154.6433 H   0  0  0  0  0  0  0  0  0  0  0  0  # atno 10763 bound_to 10752
  153.7045  135.6967  153.5058 H   0  0  0  0  0  0  0  0  0  0  0  0  # atno 10764 bound_to 10752
  153.2498  135.4357  155.0739 H   0  0  0  0  0  0  0  0  0  0  0  0  # atno 10765 bound_to 10752
  140.8976  133.7546  156.0502 H   0  0  0  0  0  0  0  0  0  0  0  0  # atno 11005 bound_to 11000
  145.2925  139.1878  143.4733 LP  0  0  0  0  0  0  0  0  0  0  0  0  # atno 17320 bound_to 7965
  146.3302  140.2904  142.8615 LP  0  0  0  0  0  0  0  0  0  0  0  0  # atno 17321 bound_to 7965
  139.8862  143.7010  152.3151 LP  0  0  0  0  0  0  0  0  0  0  0  0  # atno 17342 bound_to 10162
  139.7310  144.7582  151.0802 LP  0  0  0  0  0  0  0  0  0  0  0  0  # atno 17343 bound_to 10162
  157.6814  130.9144  150.0277 LP  0  0  0  0  0  0  0  0  0  0  0  0  # atno 17370 bound_to 10713
  156.1458  130.3642  149.9512 LP  0  0  0  0  0  0  0  0  0  0  0  0  # atno 17371 bound_to 10713
  140.8270  134.3223  157.5362 LP  0  0  0  0  0  0  0  0  0  0  0  0  # atno 17394 bound_to 11000
  139.8738  134.9341  156.3599 LP  0  0  0  0  0  0  0  0  0  0  0  0  # atno 17395 bound_to 11000

$$$$
