AV-unprocessed.smi:2112|AV-procd|sdf|8614|dock1
  -GOLD-   2272011353D 1   1.00000     0.00000
 Structure written by MMmdl.
 42 43  0  0  0  0  0  0  0  0  2 V2000
  145.6083  135.9226  150.8074 C   0  0  0  0  0  0  0  0  0  0  0  0
  145.6031  136.8192  152.0545 C   0  0  0  0  0  0  0  0  0  0  0  0
  144.1807  136.9307  152.6308 C   0  0  0  0  0  0  0  0  0  0  0  0
  146.2299  138.1933  151.7375 C   0  0  0  0  0  0  0  0  0  0  0  0
  147.4837  138.4119  152.4541 N   0  0  0  0  0  0  0  0  0  0  0  0
  147.7502  139.4475  153.2635 C   0  0  0  0  0  0  0  0  0  0  0  0
  146.9489  140.3516  153.4961 O   0  0  0  0  0  0  0  0  0  0  0  0
  148.9938  139.3590  153.7671 N   0  0  0  0  0  0  0  0  0  0  0  0
  149.6579  140.2268  154.6774 C   0  0  0  0  0  0  0  0  0  0  0  0
  150.8238  139.7410  155.3063 C   0  0  0  0  0  0  0  0  0  0  0  0
  151.5165  140.5526  156.2277 C   0  0  0  0  0  0  0  0  0  0  0  0
  151.0323  141.8487  156.5211 C   0  0  0  0  0  0  0  0  0  0  0  0
  151.6733  142.7151  157.4266 N   0  0  0  0  0  0  0  0  0  0  0  0
  151.2941  144.1144  157.5419 C   0  0  0  0  0  0  0  0  0  0  0  0
  152.0934  144.6333  158.7361 C   0  0  0  0  0  0  0  0  0  0  0  0
  152.1907  143.4086  159.6458 C   0  0  0  0  0  0  0  0  0  0  0  0
  152.2423  142.2239  158.6738 C   0  0  0  0  0  0  0  0  0  0  0  0
  149.9090  142.2747  155.8961 N   0  3  0  0  0  0  0  0  0  0  0  0
  149.2149  141.5307  155.0078 C   0  0  0  0  0  0  0  0  0  0  0  0
  145.0056  136.3537  150.0072 H   0  0  0  0  0  0  0  0  0  0  0  0
  145.2065  134.9338  151.0311 H   0  0  0  0  0  0  0  0  0  0  0  0
  146.6202  135.7853  150.4251 H   0  0  0  0  0  0  0  0  0  0  0  0
  146.2258  136.3313  152.8057 H   0  0  0  0  0  0  0  0  0  0  0  0
  143.5158  137.4543  151.9432 H   0  0  0  0  0  0  0  0  0  0  0  0
  144.1711  137.4685  153.5786 H   0  0  0  0  0  0  0  0  0  0  0  0
  143.7557  135.9443  152.8182 H   0  0  0  0  0  0  0  0  0  0  0  0
  146.4539  138.2551  150.6722 H   0  0  0  0  0  0  0  0  0  0  0  0
  145.5146  138.9927  151.9401 H   0  0  0  0  0  0  0  0  0  0  0  0
  148.2040  137.7175  152.3206 H   0  0  0  0  0  0  0  0  0  0  0  0
  149.5432  138.5780  153.4397 H   0  0  0  0  0  0  0  0  0  0  0  0
  151.1923  138.7501  155.0838 H   0  0  0  0  0  0  0  0  0  0  0  0
  152.4137  140.1727  156.6936 H   0  0  0  0  0  0  0  0  0  0  0  0
  151.5220  144.6706  156.6320 H   0  0  0  0  0  0  0  0  0  0  0  0
  150.2229  144.1882  157.7351 H   0  0  0  0  0  0  0  0  0  0  0  0
  153.0917  144.9311  158.4123 H   0  0  0  0  0  0  0  0  0  0  0  0
  151.6256  145.4907  159.2204 H   0  0  0  0  0  0  0  0  0  0  0  0
  153.0499  143.4432  160.3164 H   0  0  0  0  0  0  0  0  0  0  0  0
  151.2910  143.3400  160.2588 H   0  0  0  0  0  0  0  0  0  0  0  0
  151.6939  141.3696  159.0722 H   0  0  0  0  0  0  0  0  0  0  0  0
  153.2728  141.9167  158.4932 H   0  0  0  0  0  0  0  0  0  0  0  0
  148.3344  142.0133  154.6123 H   0  0  0  0  0  0  0  0  0  0  0  0
  149.5631  143.2102  156.1105 H   0  0  0  0  0  0  0  0  0  0  0  0
  1  2  1  0  0  0  0
  1 20  1  0  0  0  0
  1 21  1  0  0  0  0
  1 22  1  0  0  0  0
  2  3  1  0  0  0  0
  2  4  1  0  0  0  0
  2 23  1  0  0  0  0
  3 24  1  0  0  0  0
  3 25  1  0  0  0  0
  3 26  1  0  0  0  0
  4  5  1  0  0  0  0
  4 27  1  0  0  0  0
  4 28  1  0  0  0  0
  5  6  1  0  0  0  0
  5 29  1  0  0  0  0
  6  7  2  0  0  0  0
  6  8  1  0  0  0  0
  8  9  1  0  0  0  0
  8 30  1  0  0  0  0
  9 19  1  0  0  0  0
  9 10  2  0  0  0  0
 10 11  1  0  0  0  0
 10 31  1  0  0  0  0
 11 12  2  0  0  0  0
 11 32  1  0  0  0  0
 12 13  1  0  0  0  0
 12 18  1  0  0  0  0
 13 17  1  0  0  0  0
 13 14  1  0  0  0  0
 14 15  1  0  0  0  0
 14 33  1  0  0  0  0
 14 34  1  0  0  0  0
 15 16  1  0  0  0  0
 15 35  1  0  0  0  0
 15 36  1  0  0  0  0
 16 17  1  0  0  0  0
 16 37  1  0  0  0  0
 16 38  1  0  0  0  0
 17 39  1  0  0  0  0
 17 40  1  0  0  0  0
 18 19  2  0  0  0  0
 18 42  1  0  0  0  0
 19 41  1  0  0  0  0
M  CHG  1  18   1
M  END
> <s_m_source_file>
AV-unprocessed.smi

> <i_m_source_file_index>
2112

> <i_lp_mmshare_version>
43012

> <i_f3d_flags>
0

> <s_epik_input>
W0NIM11bQ0hdKFtDSDNdKVtDSDJdW05IXUMoPU8pW05IXWMxW2NIXVtjSF1jKG5bY0hdMSlOMltDSDJdW0NIMl1bQ0gyXVtDSDJdMg==

> <s_epik_cmdline>
J2VwaWtfcHl0aG9uJywgJy1waCcsICc3LjAnLCAnLXRuJywgJzgnLCAnLW1hJywgJzIwMCcsICctbWV0YWxfYmluZGluZycsICctaW1hZScsICc8aW5maWxlLm1hZT4nLCAnLW9tYWUnLCAnPG91dGZpbGUubWFlPic=

> <r_lp_tautomer_probability>
0.999994

> <r_epik_Ionization_Penalty>
1.09853

> <r_epik_Ionization_Penalty_Charging>
1.09851

> <r_epik_Ionization_Penalty_Neutral>
2.18606e-05

> <r_epik_State_Penalty>
1.15544

> <r_epik_Charging_Adjusted_Penalty>
2.25394

> <i_epik_Tot_Q>
1

> <i_epik_Tot_abs_Q>
1

> <r_epik_Metal_State_Penalty>
1.2431

> <b_epik_Metal_Only>
0

> <s_lp_Force_Field>
OPLS_2005

> <r_lp_Energy>
36.0916

> <b_lp_Chiralities_Consistent>
1

> <s_lp_Variant>
AV-unprocessed.smi:2112-2

> <Gold.Version>
5.8.1

> <Gold.Id.Protein>
6NUR|6NUR_protein|mol2

> <Gold.PLP.Fitness>
50.9422

> <Gold.PLP.PLP>
-43.9553

> <Gold.PLP.part.hbond>
-4.0000

> <Gold.PLP.part.metal>
0.0000

> <Gold.PLP.part.buried>
-0.1207

> <Gold.PLP.part.nonpolar>
-41.1597

> <Gold.PLP.part.repulsive>
0.4686

> <Gold.PLP.ligand.clash>
0.0000

> <Gold.PLP.ligand.torsion>
1.1336

> <Gold.PLP.Chemscore.Hbond>
3.0000

> <Gold.PLP.Chemscore.CHOScore>
0.0000

> <Gold.PLP.Chemscore.Metal>
0.0000

> <Gold.Chemscore.Hbonds>
donor molecule, donor type, donor heavy atom, donor atom, acceptor molecule, acceptor atom, score
      L1  H     5    29       P1  7948  1.00
      L1  H    18    42       P1  8028  2.00

> <Gold.PLP.Chemscore.Internal.Correction>
0.2541

> <Gold.Rescore>
     Score         DG    S(hbond)    S(metal)    S(lipo)     H(rot)  DE(clash)    DE(int)     intcor
     17.96     -20.32       1.93        0.00      97.23       1.16       0.14       2.22       ----

> <Gold.Chemscore.Fitness>
17.9583

> <Gold.Chemscore.DG>
-20.3233

> <Gold.Chemscore.ZeroCoef>
-5.4800

> <Gold.Chemscore.Hbond>
1.9305

> <Gold.Chemscore.Metal>
0.0000

> <Gold.Chemscore.Lipo>
97.2304

> <Gold.Chemscore.Internal_Hbond>
0.0000

> <Gold.Chemscore.DEClash>
0.1410

> <Gold.Chemscore.DEInternal>
2.2240

> <Gold.Chemscore.Rot>
1.1643

> <Gold.Chemscore.Internal.Correction>
   9.000000E+99

> <Gold.Chemscore.Hbonds>
donor molecule, donor type, donor heavy atom, donor atom, acceptor molecule, acceptor atom, score
      L1  H     5    29       P1  7948  1.00
      L1  H    18    42       P1  8028  0.96

> <Gold.Chemscore.Hbond.Weighted>
-6.4480

> <Gold.Chemscore.Metal.Weighted>
-0.0000

> <Gold.Chemscore.Lipo.Weighted>
-11.3760

> <Gold.Chemscore.Internal_Hbond.Weighted>
0.0000

> <Gold.Chemscore.DEClash.Weighted>
0.1410

> <Gold.Chemscore.DEInternal.Weighted>
2.2240

> <Gold.Chemscore.Rot.Weighted>
2.9807

> <Gold.Chemscore.Internal.Correction.Weighted>
   9.000000E+99

> <Gold.Protein.RotatedTorsions>
[ 6907 6896 6895 6894 ] final   50.04 input  -60.11 | X-H torsion
[ 7974 7965 7964 7962 ] final -175.46 input  175.53 | X-H torsion
[ 8008 7997 7996 7995 ] final   48.53 input   59.86 | X-H torsion
[ 10167 10162 10161 10158 ] final  161.66 input  -65.29 | X-H torsion
[ 10718 10713 10712 10709 ] final  -88.79 input   66.30 | X-H torsion
[ 10763 10752 10751 10750 ] final    2.38 input  -60.55 | X-H torsion
[ 11005 11000 10999 10996 ] final  -12.38 input  -57.11 | X-H torsion

> <Gold.Protein.ActiveResidues>
 VAL166  LYS551  ARG553  GLY616  TRP617  ASP618  TYR619  PRO620  LYS621  CYS622 
 ASP623  PHE694  ASN695  SER759  ASP760  ASP761  ALA762  ILE779  LEU786  VAL792 
 PHE793  MET794  SER795  GLU796  ALA797  LYS798  CYS799  TRP800  GLU811  SER814 

> <Gold.Protein.RotatedAtoms>
  152.2975  134.7650  160.0364 H   0  0  0  0  0  0  0  0  0  0  0  0  # atno 6907 bound_to 6896
  151.8175  133.3385  159.3582 H   0  0  0  0  0  0  0  0  0  0  0  0  # atno 6908 bound_to 6896
  150.7258  134.5535  159.5850 H   0  0  0  0  0  0  0  0  0  0  0  0  # atno 6909 bound_to 6896
  144.7128  140.1317  143.6398 H   0  0  0  0  0  0  0  0  0  0  0  0  # atno 7974 bound_to 7965
  155.3872  140.3431  155.4249 H   0  0  0  0  0  0  0  0  0  0  0  0  # atno 8008 bound_to 7997
  156.1578  140.1591  156.8697 H   0  0  0  0  0  0  0  0  0  0  0  0  # atno 8009 bound_to 7997
  154.5111  140.0790  156.7972 H   0  0  0  0  0  0  0  0  0  0  0  0  # atno 8010 bound_to 7997
  139.4852  144.4515  151.8824 H   0  0  0  0  0  0  0  0  0  0  0  0  # atno 10167 bound_to 10162
  155.9983  130.4849  150.5073 H   0  0  0  0  0  0  0  0  0  0  0  0  # atno 10718 bound_to 10713
  153.2962  135.6952  153.7245 H   0  0  0  0  0  0  0  0  0  0  0  0  # atno 10763 bound_to 10752
  153.6177  135.3433  155.3001 H   0  0  0  0  0  0  0  0  0  0  0  0  # atno 10764 bound_to 10752
  154.8538  135.4378  154.2060 H   0  0  0  0  0  0  0  0  0  0  0  0  # atno 10765 bound_to 10752
  140.7652  133.8483  155.9158 H   0  0  0  0  0  0  0  0  0  0  0  0  # atno 11005 bound_to 11000
  145.9281  139.2588  143.1342 LP  0  0  0  0  0  0  0  0  0  0  0  0  # atno 17320 bound_to 7965
  145.9552  140.8878  143.0239 LP  0  0  0  0  0  0  0  0  0  0  0  0  # atno 17321 bound_to 7965
  140.3972  144.2540  150.5895 LP  0  0  0  0  0  0  0  0  0  0  0  0  # atno 17342 bound_to 10162
  140.5091  143.2295  151.8562 LP  0  0  0  0  0  0  0  0  0  0  0  0  # atno 17343 bound_to 10162
  157.3051  131.0653  151.2041 LP  0  0  0  0  0  0  0  0  0  0  0  0  # atno 17370 bound_to 10713
  157.3007  130.6841  149.6162 LP  0  0  0  0  0  0  0  0  0  0  0  0  # atno 17371 bound_to 10713
  140.9626  134.1636  157.4642 LP  0  0  0  0  0  0  0  0  0  0  0  0  # atno 17394 bound_to 11000
  139.8764  134.9950  156.5722 LP  0  0  0  0  0  0  0  0  0  0  0  0  # atno 17395 bound_to 11000

$$$$
