AV-unprocessed.smi:140|AV-procd|sdf|1186|dock5
  -GOLD-   2262018343D 1   1.00000     0.00000
 Structure written by MMmdl.
 52 55  0  0  0  0  0  0  0  0  1 V2000
  147.3885  135.6310  156.0167 C   0  0  0  0  0  0  0  0  0  0  0  0
  148.5898  136.2122  156.6913 C   0  0  0  0  0  0  0  0  0  0  0  0
  149.8742  136.3056  156.2433 C   0  0  0  0  0  0  0  0  0  0  0  0
  150.6593  136.9393  157.2458 C   0  0  0  0  0  0  0  0  0  0  0  0
  152.1123  137.2441  157.2226 C   0  0  0  0  0  0  0  0  0  0  0  0
  152.9323  136.6792  157.9482 O   0  0  0  0  0  0  0  0  0  0  0  0
  152.5521  138.3243  156.2164 C   0  0  0  0  0  0  0  0  0  0  0  0
  151.8602  139.5933  156.4025 N   0  0  0  0  0  0  0  0  0  0  0  0
  150.8723  139.9559  155.4530 C   0  0  0  0  0  0  0  0  0  0  0  0
  150.5899  139.2361  154.4935 O   0  0  0  0  0  0  0  0  0  0  0  0
  150.2368  141.2448  155.7031 C   0  0  0  0  0  0  0  0  0  0  0  0
  149.2754  141.6833  154.8727 F   0  0  0  0  0  0  0  0  0  0  0  0
  150.5970  142.0086  156.7573 C   0  0  0  0  0  0  0  0  0  0  0  0
  151.5791  141.6356  157.6607 N   0  0  0  0  0  0  0  0  0  0  0  0
  151.9728  142.5137  158.8288 C   0  0  1  0  0  0  0  0  0  0  0  0
  152.6051  143.8262  158.3303 C   0  0  0  0  0  0  0  0  0  0  0  0
  151.8345  144.8797  159.1005 C   0  0  0  0  0  0  0  0  0  0  0  0
  150.4828  144.2065  159.2840 C   0  0  0  0  0  0  0  0  0  0  0  0
  150.8361  142.8589  159.5687 O   0  0  0  0  0  0  0  0  0  0  0  0
  152.2433  140.4003  157.5006 C   0  0  0  0  0  0  0  0  0  0  0  0
  153.1293  140.0546  158.2861 O   0  0  0  0  0  0  0  0  0  0  0  0
  149.8218  137.2353  158.2967 C   0  0  0  0  0  0  0  0  0  0  0  0
  150.0996  137.9150  159.6091 C   0  0  0  0  0  0  0  0  0  0  0  0
  148.5474  136.7723  157.9628 N   0  0  0  0  0  0  0  0  0  0  0  0
  147.3554  136.8632  158.8013 C   0  0  0  0  0  0  0  0  0  0  0  0
  147.4746  136.0861  160.0750 C   0  0  0  0  0  0  0  0  0  0  0  0
  147.5397  136.5667  161.3592 C   0  0  0  0  0  0  0  0  0  0  0  0
  147.6510  135.5379  162.3395 C   0  0  0  0  0  0  0  0  0  0  0  0
  147.6671  134.2830  161.7921 C   0  0  0  0  0  0  0  0  0  0  0  0
  147.5437  134.3417  160.0555 S   0  0  0  0  0  0  0  0  0  0  0  0
  147.6151  135.3643  154.9842 H   0  0  0  0  0  0  0  0  0  0  0  0
  146.5625  136.3422  156.0010 H   0  0  0  0  0  0  0  0  0  0  0  0
  147.0541  134.7280  156.5277 H   0  0  0  0  0  0  0  0  0  0  0  0
  150.2156  135.9460  155.2838 H   0  0  0  0  0  0  0  0  0  0  0  0
  153.6250  138.5095  156.2861 H   0  0  0  0  0  0  0  0  0  0  0  0
  152.3825  137.9953  155.1901 H   0  0  0  0  0  0  0  0  0  0  0  0
  150.0831  142.9493  156.8823 H   0  0  0  0  0  0  0  0  0  0  0  0
  152.6339  141.9061  159.4494 H   0  0  0  0  0  0  0  0  0  0  0  0
  153.6774  143.8450  158.5268 H   0  0  0  0  0  0  0  0  0  0  0  0
  152.4386  143.9418  157.2580 H   0  0  0  0  0  0  0  0  0  0  0  0
  152.3010  145.0526  160.0711 H   0  0  0  0  0  0  0  0  0  0  0  0
  151.7695  145.8329  158.5752 H   0  0  0  0  0  0  0  0  0  0  0  0
  149.8967  144.6464  160.0909 H   0  0  0  0  0  0  0  0  0  0  0  0
  149.8976  144.2569  158.3648 H   0  0  0  0  0  0  0  0  0  0  0  0
  150.7051  138.8091  159.4618 H   0  0  0  0  0  0  0  0  0  0  0  0
  150.6422  137.2477  160.2787 H   0  0  0  0  0  0  0  0  0  0  0  0
  149.1962  138.2390  160.1217 H   0  0  0  0  0  0  0  0  0  0  0  0
  147.1460  137.9074  159.0300 H   0  0  0  0  0  0  0  0  0  0  0  0
  146.4970  136.5209  158.2227 H   0  0  0  0  0  0  0  0  0  0  0  0
  147.5153  137.6126  161.6269 H   0  0  0  0  0  0  0  0  0  0  0  0
  147.7152  135.7520  163.3963 H   0  0  0  0  0  0  0  0  0  0  0  0
  147.7434  133.3326  162.2995 H   0  0  0  0  0  0  0  0  0  0  0  0
  1  2  1  0  0  0  0
  1 31  1  0  0  0  0
  1 32  1  0  0  0  0
  1 33  1  0  0  0  0
  2 24  1  0  0  0  0
  2  3  2  0  0  0  0
  3  4  1  0  0  0  0
  3 34  1  0  0  0  0
  4  5  1  0  0  0  0
  4 22  2  0  0  0  0
  5  6  2  0  0  0  0
  5  7  1  0  0  0  0
  7  8  1  0  0  0  0
  7 35  1  0  0  0  0
  7 36  1  0  0  0  0
  8 20  1  0  0  0  0
  8  9  1  0  0  0  0
  9 10  2  0  0  0  0
  9 11  1  0  0  0  0
 11 12  1  0  0  0  0
 11 13  2  0  0  0  0
 13 14  1  0  0  0  0
 13 37  1  0  0  0  0
 14 15  1  0  0  0  0
 14 20  1  0  0  0  0
 15 19  1  0  0  0  0
 15 16  1  0  0  0  0
 15 38  1  0  0  0  0
 16 17  1  0  0  0  0
 16 39  1  0  0  0  0
 16 40  1  0  0  0  0
 17 18  1  0  0  0  0
 17 41  1  0  0  0  0
 17 42  1  0  0  0  0
 18 19  1  0  0  0  0
 18 43  1  0  0  0  0
 18 44  1  0  0  0  0
 20 21  2  0  0  0  0
 22 23  1  0  0  0  0
 22 24  1  0  0  0  0
 23 45  1  0  0  0  0
 23 46  1  0  0  0  0
 23 47  1  0  0  0  0
 24 25  1  0  0  0  0
 25 26  1  0  0  0  0
 25 48  1  0  0  0  0
 25 49  1  0  0  0  0
 26 30  1  0  0  0  0
 26 27  2  0  0  0  0
 27 28  1  0  0  0  0
 27 50  1  0  0  0  0
 28 29  2  0  0  0  0
 28 51  1  0  0  0  0
 29 30  1  0  0  0  0
 29 52  1  0  0  0  0
M  END
> <s_m_source_file>
AV-unprocessed.smi

> <i_m_source_file_index>
140

> <i_lp_mmshare_version>
43012

> <i_f3d_flags>
0

> <s_epik_input>
czFbY0hdW2NIXVtjSF1jMVtDSDJdbjJjKFtDSDNdKWMoW2NIXWMyW0NIM10pQyg9TylbQ0gyXW4zYyg9TyljKEYpW2NIXW4oYzM9TylbQ0BASF00W0NIMl1bQ0gyXVtDSDJdTzQ=

> <s_epik_cmdline>
J2VwaWtfcHl0aG9uJywgJy1waCcsICc3LjAnLCAnLXRuJywgJzgnLCAnLW1hJywgJzIwMCcsICctbWV0YWxfYmluZGluZycsICctaW1hZScsICc8aW5maWxlLm1hZT4nLCAnLW9tYWUnLCAnPG91dGZpbGUubWFlPic=

> <r_lp_tautomer_probability>
1

> <r_epik_Ionization_Penalty>
5.024e-09

> <r_epik_Ionization_Penalty_Charging>
5.01743e-09

> <r_epik_Ionization_Penalty_Neutral>
6.5712e-12

> <r_epik_State_Penalty>
-0

> <r_epik_Charging_Adjusted_Penalty>
5.01743e-09

> <i_epik_Tot_Q>
0

> <i_epik_Tot_abs_Q>
0

> <r_epik_Metal_State_Penalty>
-0

> <b_epik_Metal_Only>
0

> <s_epik_Chemistry_Notes>
This compound contains an acetal/aminal-like group ( X-CH(R)-Y where X, Y are N, S, or O) that may be acid/base labile, releasing an aldehyde.

> <s_lp_Force_Field>
OPLS_2005

> <r_lp_Energy>
38.6163

> <b_lp_Chiralities_Consistent>
1

> <s_lp_Variant>
AV-unprocessed.smi:140-2

> <Gold.Version>
5.8.1

> <Gold.Id.Protein>
6NUR|6NUR_protein|mol2

> <Gold.PLP.Fitness>
50.8006

> <Gold.PLP.PLP>
-47.8484

> <Gold.PLP.part.hbond>
-2.7341

> <Gold.PLP.part.metal>
0.0000

> <Gold.PLP.part.buried>
-3.4301

> <Gold.PLP.part.nonpolar>
-42.3481

> <Gold.PLP.part.repulsive>
0.1626

> <Gold.PLP.ligand.clash>
0.0000

> <Gold.PLP.ligand.torsion>
1.6175

> <Gold.PLP.Chemscore.Hbond>
1.0390

> <Gold.PLP.Chemscore.CHOScore>
1.0000

> <Gold.PLP.Chemscore.Metal>
0.0000

> <Gold.Chemscore.Hbonds>
donor molecule, donor type, donor heavy atom, donor atom, acceptor molecule, acceptor atom, score
      P1  H  7997  8010       L1    21  0.90
      L1  C    13    37       P1  8028  1.00

> <Gold.PLP.Chemscore.Internal.Correction>
0.0702

> <Gold.Rescore>
     Score         DG    S(hbond)    S(metal)    S(lipo)     H(rot)  DE(clash)    DE(int)     intcor
     13.59     -15.49       0.83        0.00     102.74       1.87       0.11       1.79       ----

> <Gold.Chemscore.Fitness>
13.5865

> <Gold.Chemscore.DG>
-15.4928

> <Gold.Chemscore.ZeroCoef>
-5.4800

> <Gold.Chemscore.Hbond>
0.8332

> <Gold.Chemscore.Metal>
0.0000

> <Gold.Chemscore.Lipo>
102.7390

> <Gold.Chemscore.Internal_Hbond>
0.0000

> <Gold.Chemscore.DEClash>
0.1127

> <Gold.Chemscore.DEInternal>
1.7936

> <Gold.Chemscore.Rot>
1.8713

> <Gold.Chemscore.Internal.Correction>
   9.000000E+99

> <Gold.Chemscore.Hbonds>
donor molecule, donor type, donor heavy atom, donor atom, acceptor molecule, acceptor atom, score
      P1  H  7997  8010       L1    21  0.17

> <Gold.Chemscore.Hbond.Weighted>
-2.7828

> <Gold.Chemscore.Metal.Weighted>
-0.0000

> <Gold.Chemscore.Lipo.Weighted>
-12.0205

> <Gold.Chemscore.Internal_Hbond.Weighted>
0.0000

> <Gold.Chemscore.DEClash.Weighted>
0.1127

> <Gold.Chemscore.DEInternal.Weighted>
1.7936

> <Gold.Chemscore.Rot.Weighted>
4.7905

> <Gold.Chemscore.Internal.Correction.Weighted>
   9.000000E+99

> <Gold.Protein.RotatedTorsions>
[ 6907 6896 6895 6894 ] final   37.21 input  -60.11 | X-H torsion
[ 7974 7965 7964 7962 ] final  141.69 input  175.53 | X-H torsion
[ 8008 7997 7996 7995 ] final   32.39 input   59.86 | X-H torsion
[ 10167 10162 10161 10158 ] final  144.74 input  -65.29 | X-H torsion
[ 10718 10713 10712 10709 ] final   17.58 input   66.30 | X-H torsion
[ 10763 10752 10751 10750 ] final    8.53 input  -60.55 | X-H torsion
[ 11005 11000 10999 10996 ] final -137.20 input  -57.11 | X-H torsion

> <Gold.Protein.ActiveResidues>
 VAL166  LYS551  ARG553  GLY616  TRP617  ASP618  TYR619  PRO620  LYS621  CYS622 
 ASP623  PHE694  ASN695  SER759  ASP760  ASP761  ALA762  ILE779  LEU786  VAL792 
 PHE793  MET794  SER795  GLU796  ALA797  LYS798  CYS799  TRP800  GLU811  SER814 

> <Gold.Protein.RotatedAtoms>
  152.1401  134.9069  160.0553 H   0  0  0  0  0  0  0  0  0  0  0  0  # atno 6907 bound_to 6896
  152.0140  133.3867  159.4239 H   0  0  0  0  0  0  0  0  0  0  0  0  # atno 6908 bound_to 6896
  150.6864  134.3621  159.4998 H   0  0  0  0  0  0  0  0  0  0  0  0  # atno 6909 bound_to 6896
  144.9074  139.5339  143.5725 H   0  0  0  0  0  0  0  0  0  0  0  0  # atno 7974 bound_to 7965
  155.1217  140.3249  155.4495 H   0  0  0  0  0  0  0  0  0  0  0  0  # atno 8008 bound_to 7997
  156.2661  140.2026  156.6287 H   0  0  0  0  0  0  0  0  0  0  0  0  # atno 8009 bound_to 7997
  154.6678  140.0540  157.0120 H   0  0  0  0  0  0  0  0  0  0  0  0  # atno 8010 bound_to 7997
  139.4940  144.5951  151.6600 H   0  0  0  0  0  0  0  0  0  0  0  0  # atno 10167 bound_to 10162
  157.0842  130.6400  149.5833 H   0  0  0  0  0  0  0  0  0  0  0  0  # atno 10718 bound_to 10713
  153.2240  135.6884  153.7967 H   0  0  0  0  0  0  0  0  0  0  0  0  # atno 10763 bound_to 10752
  153.7156  135.3275  155.3256 H   0  0  0  0  0  0  0  0  0  0  0  0  # atno 10764 bound_to 10752
  154.8283  135.4601  154.1098 H   0  0  0  0  0  0  0  0  0  0  0  0  # atno 10765 bound_to 10752
  140.8734  134.2023  157.4637 H   0  0  0  0  0  0  0  0  0  0  0  0  # atno 11005 bound_to 11000
  146.3141  139.7853  142.8997 LP  0  0  0  0  0  0  0  0  0  0  0  0  # atno 17320 bound_to 7965
  145.3512  141.0308  143.3337 LP  0  0  0  0  0  0  0  0  0  0  0  0  # atno 17321 bound_to 7965
  140.5587  144.0305  150.6159 LP  0  0  0  0  0  0  0  0  0  0  0  0  # atno 17342 bound_to 10162
  140.3384  143.3034  152.0614 LP  0  0  0  0  0  0  0  0  0  0  0  0  # atno 17343 bound_to 10162
  155.9915  130.4970  150.7303 LP  0  0  0  0  0  0  0  0  0  0  0  0  # atno 17370 bound_to 10713
  157.4775  131.0899  151.0574 LP  0  0  0  0  0  0  0  0  0  0  0  0  # atno 17371 bound_to 10713
  139.8714  134.9784  156.4997 LP  0  0  0  0  0  0  0  0  0  0  0  0  # atno 17394 bound_to 11000
  140.8547  133.8105  155.9204 LP  0  0  0  0  0  0  0  0  0  0  0  0  # atno 17395 bound_to 11000

$$$$
