AV-unprocessed.smi:1958|AV-procd|sdf|7906|dock1
  -GOLD-   2272010 63D 1   1.00000     0.00000
 Structure written by MMmdl.
 47 48  0  0  0  0  0  0  0  0  1 V2000
  146.4611  142.7467  154.2466 C   0  0  0  0  0  0  0  0  0  0  0  0
  146.5387  141.3331  154.2987 O   0  0  0  0  0  0  0  0  0  0  0  0
  147.6706  140.8248  153.6114 C   0  0  0  0  0  0  0  0  0  0  0  0
  148.8892  140.8429  154.5489 C   0  0  0  0  0  0  0  0  0  0  0  0
  149.4232  139.4950  154.7747 N   0  0  0  0  0  0  0  0  0  0  0  0
  148.4602  138.5002  154.7714 N   0  0  0  0  0  0  0  0  0  0  0  0
  148.7964  137.2679  154.9783 C   0  0  0  0  0  0  0  0  0  0  0  0
  147.7901  136.1707  154.9879 C   0  0  0  0  0  0  0  0  0  0  0  0
  147.1366  135.8951  155.9956 O   0  0  0  0  0  0  0  0  0  0  0  0
  147.6588  135.5059  153.8262 N   0  0  0  0  0  0  0  0  0  0  0  0
  146.7807  134.3639  153.5826 C   0  0  0  0  0  0  0  0  0  0  0  0
  146.0168  134.4822  152.2371 C   0  0  2  0  0  0  0  0  0  0  0  0
  145.2519  135.8249  152.2231 C   0  0  0  0  0  0  0  0  0  0  0  0
  145.1636  133.3140  151.9264 N   0  0  0  0  0  0  0  0  0  0  0  0
  145.9369  132.1663  151.4427 C   0  0  0  0  0  0  0  0  0  0  0  0
  145.0493  130.9547  151.1109 C   0  0  0  0  0  0  0  0  0  0  0  0
  144.0712  131.3284  150.1494 O   0  0  0  0  0  0  0  0  0  0  0  0
  143.2521  132.3984  150.6027 C   0  0  0  0  0  0  0  0  0  0  0  0
  144.1286  133.6186  150.9345 C   0  0  0  0  0  0  0  0  0  0  0  0
  150.1841  136.9046  155.2102 C   0  0  0  0  0  0  0  0  0  0  0  0
  151.1127  137.8862  155.2104 C   0  0  0  0  0  0  0  0  0  0  0  0
  150.7581  139.2884  154.9858 C   0  0  0  0  0  0  0  0  0  0  0  0
  151.5843  140.2006  154.9909 O   0  0  0  0  0  0  0  0  0  0  0  0
  145.5752  143.0851  154.7841 H   0  0  0  0  0  0  0  0  0  0  0  0
  146.3855  143.0999  153.2174 H   0  0  0  0  0  0  0  0  0  0  0  0
  147.3335  143.2072  154.7121 H   0  0  0  0  0  0  0  0  0  0  0  0
  147.4718  139.8007  153.2933 H   0  0  0  0  0  0  0  0  0  0  0  0
  147.8668  141.4099  152.7117 H   0  0  0  0  0  0  0  0  0  0  0  0
  149.6610  141.4935  154.1336 H   0  0  0  0  0  0  0  0  0  0  0  0
  148.6129  141.2978  155.5018 H   0  0  0  0  0  0  0  0  0  0  0  0
  148.2391  135.7993  153.0535 H   0  0  0  0  0  0  0  0  0  0  0  0
  147.3416  133.4286  153.6205 H   0  0  0  0  0  0  0  0  0  0  0  0
  146.0817  134.2950  154.4155 H   0  0  0  0  0  0  0  0  0  0  0  0
  146.7785  134.5574  151.4593 H   0  0  0  0  0  0  0  0  0  0  0  0
  145.8822  136.6429  152.5727 H   0  0  0  0  0  0  0  0  0  0  0  0
  144.3710  135.7911  152.8649 H   0  0  0  0  0  0  0  0  0  0  0  0
  144.9271  136.1001  151.2202 H   0  0  0  0  0  0  0  0  0  0  0  0
  146.5060  132.4510  150.5563 H   0  0  0  0  0  0  0  0  0  0  0  0
  146.6595  131.8475  152.1920 H   0  0  0  0  0  0  0  0  0  0  0  0
  145.6532  130.1423  150.7065 H   0  0  0  0  0  0  0  0  0  0  0  0
  144.5618  130.5748  152.0101 H   0  0  0  0  0  0  0  0  0  0  0  0
  142.5322  132.6502  149.8239 H   0  0  0  0  0  0  0  0  0  0  0  0
  142.6811  132.0840  151.4778 H   0  0  0  0  0  0  0  0  0  0  0  0
  143.4692  134.4046  151.2995 H   0  0  0  0  0  0  0  0  0  0  0  0
  144.5910  133.9929  150.0199 H   0  0  0  0  0  0  0  0  0  0  0  0
  150.4747  135.8779  155.3790 H   0  0  0  0  0  0  0  0  0  0  0  0
  152.1481  137.6305  155.3821 H   0  0  0  0  0  0  0  0  0  0  0  0
  1  2  1  0  0  0  0
  1 24  1  0  0  0  0
  1 25  1  0  0  0  0
  1 26  1  0  0  0  0
  2  3  1  0  0  0  0
  3  4  1  0  0  0  0
  3 27  1  0  0  0  0
  3 28  1  0  0  0  0
  4  5  1  0  0  0  0
  4 29  1  0  0  0  0
  4 30  1  0  0  0  0
  5 22  1  0  0  0  0
  5  6  1  0  0  0  0
  6  7  2  0  0  0  0
  7  8  1  0  0  0  0
  7 20  1  0  0  0  0
  8  9  2  0  0  0  0
  8 10  1  0  0  0  0
 10 11  1  0  0  0  0
 10 31  1  0  0  0  0
 11 12  1  0  0  0  0
 11 32  1  0  0  0  0
 11 33  1  0  0  0  0
 12 13  1  0  0  0  0
 12 14  1  0  0  0  0
 12 34  1  0  0  0  0
 13 35  1  0  0  0  0
 13 36  1  0  0  0  0
 13 37  1  0  0  0  0
 14 19  1  0  0  0  0
 14 15  1  0  0  0  0
 15 16  1  0  0  0  0
 15 38  1  0  0  0  0
 15 39  1  0  0  0  0
 16 17  1  0  0  0  0
 16 40  1  0  0  0  0
 16 41  1  0  0  0  0
 17 18  1  0  0  0  0
 18 19  1  0  0  0  0
 18 42  1  0  0  0  0
 18 43  1  0  0  0  0
 19 44  1  0  0  0  0
 19 45  1  0  0  0  0
 20 21  2  0  0  0  0
 20 46  1  0  0  0  0
 21 22  1  0  0  0  0
 21 47  1  0  0  0  0
 22 23  2  0  0  0  0
M  END
> <s_m_source_file>
AV-unprocessed.smi

> <i_m_source_file_index>
1958

> <i_lp_mmshare_version>
43012

> <i_f3d_flags>
0

> <s_epik_input>
W0NIM11PW0NIMl1bQ0gyXW4xbmMoW2NIXVtjSF1jMT1PKUMoPU8pW05IXVtDSDJdW0NASF0oW0NIM10pTjJbQ0gyXVtDSDJdT1tDSDJdW0NIMl0y

> <s_epik_cmdline>
J2VwaWtfcHl0aG9uJywgJy1waCcsICc3LjAnLCAnLXRuJywgJzgnLCAnLW1hJywgJzIwMCcsICctbWV0YWxfYmluZGluZycsICctaW1hZScsICc8aW5maWxlLm1hZT4nLCAnLW9tYWUnLCAnPG91dGZpbGUubWFlPic=

> <r_lp_tautomer_probability>
1

> <r_epik_Ionization_Penalty>
0.206669

> <r_epik_Ionization_Penalty_Charging>
5.75808e-09

> <r_epik_Ionization_Penalty_Neutral>
0.206669

> <r_epik_State_Penalty>
0.196651

> <r_epik_Charging_Adjusted_Penalty>
0.196651

> <i_epik_Tot_Q>
0

> <i_epik_Tot_abs_Q>
0

> <r_epik_Metal_State_Penalty>
0.198415

> <b_epik_Metal_Only>
0

> <s_lp_Force_Field>
OPLS_2005

> <r_lp_Energy>
53.7992

> <b_lp_Chiralities_Consistent>
1

> <s_lp_Variant>
AV-unprocessed.smi:1958-1

> <Gold.Version>
5.8.1

> <Gold.Id.Protein>
6NUR|6NUR_protein|mol2

> <Gold.PLP.Fitness>
37.4080

> <Gold.PLP.PLP>
-35.5405

> <Gold.PLP.part.hbond>
-2.8530

> <Gold.PLP.part.metal>
0.0000

> <Gold.PLP.part.buried>
-4.7588

> <Gold.PLP.part.nonpolar>
-29.8218

> <Gold.PLP.part.repulsive>
0.5636

> <Gold.PLP.ligand.clash>
0.0000

> <Gold.PLP.ligand.torsion>
2.8832

> <Gold.PLP.Chemscore.Hbond>
2.5015

> <Gold.PLP.Chemscore.CHOScore>
0.0000

> <Gold.PLP.Chemscore.Metal>
0.0000

> <Gold.Chemscore.Hbonds>
donor molecule, donor type, donor heavy atom, donor atom, acceptor molecule, acceptor atom, score
      L1  H    10    31       P1  7948  0.78
      P1  H  7989  7998       L1    23  1.00
      P1  H 10785 10796       L1    17  0.61

> <Gold.PLP.Chemscore.Internal.Correction>
0.1294

> <Gold.Rescore>
     Score         DG    S(hbond)    S(metal)    S(lipo)     H(rot)  DE(clash)    DE(int)     intcor
     15.11     -18.14       2.64        0.00      77.54       2.04       0.19       2.84       ----

> <Gold.Chemscore.Fitness>
15.1079

> <Gold.Chemscore.DG>
-18.1393

> <Gold.Chemscore.ZeroCoef>
-5.4800

> <Gold.Chemscore.Hbond>
2.6385

> <Gold.Chemscore.Metal>
0.0000

> <Gold.Chemscore.Lipo>
77.5422

> <Gold.Chemscore.Internal_Hbond>
0.0000

> <Gold.Chemscore.DEClash>
0.1916

> <Gold.Chemscore.DEInternal>
2.8398

> <Gold.Chemscore.Rot>
2.0413

> <Gold.Chemscore.Internal.Correction>
   9.000000E+99

> <Gold.Chemscore.Hbonds>
donor molecule, donor type, donor heavy atom, donor atom, acceptor molecule, acceptor atom, score
      L1  H    10    31       P1  7948  0.79
      P1  H  7989  7998       L1    23  0.70
      P1  H 10785 10796       L1    17  0.52

> <Gold.Chemscore.Hbond.Weighted>
-8.8125

> <Gold.Chemscore.Metal.Weighted>
-0.0000

> <Gold.Chemscore.Lipo.Weighted>
-9.0724

> <Gold.Chemscore.Internal_Hbond.Weighted>
0.0000

> <Gold.Chemscore.DEClash.Weighted>
0.1916

> <Gold.Chemscore.DEInternal.Weighted>
2.8398

> <Gold.Chemscore.Rot.Weighted>
5.2257

> <Gold.Chemscore.Internal.Correction.Weighted>
   9.000000E+99

> <Gold.Protein.RotatedTorsions>
[ 6907 6896 6895 6894 ] final  169.55 input  -60.11 | X-H torsion
[ 7974 7965 7964 7962 ] final  -67.69 input  175.53 | X-H torsion
[ 8008 7997 7996 7995 ] final  111.31 input   59.86 | X-H torsion
[ 10167 10162 10161 10158 ] final  123.17 input  -65.29 | X-H torsion
[ 10718 10713 10712 10709 ] final -133.47 input   66.30 | X-H torsion
[ 10763 10752 10751 10750 ] final -143.59 input  -60.55 | X-H torsion
[ 11005 11000 10999 10996 ] final -158.71 input  -57.11 | X-H torsion

> <Gold.Protein.ActiveResidues>
 VAL166  LYS551  ARG553  GLY616  TRP617  ASP618  TYR619  PRO620  LYS621  CYS622 
 ASP623  PHE694  ASN695  SER759  ASP760  ASP761  ALA762  ILE779  LEU786  VAL792 
 PHE793  MET794  SER795  GLU796  ALA797  LYS798  CYS799  TRP800  GLU811  SER814 

> <Gold.Protein.RotatedAtoms>
  151.8301  133.3407  159.3610 H   0  0  0  0  0  0  0  0  0  0  0  0  # atno 6907 bound_to 6896
  150.7267  134.5490  159.5794 H   0  0  0  0  0  0  0  0  0  0  0  0  # atno 6908 bound_to 6896
  152.2942  134.7687  160.0422 H   0  0  0  0  0  0  0  0  0  0  0  0  # atno 6909 bound_to 6896
  145.7260  140.9018  143.0605 H   0  0  0  0  0  0  0  0  0  0  0  0  # atno 7974 bound_to 7965
  156.2115  140.3022  155.9742 H   0  0  0  0  0  0  0  0  0  0  0  0  # atno 8008 bound_to 7997
  155.2713  140.0434  157.3024 H   0  0  0  0  0  0  0  0  0  0  0  0  # atno 8009 bound_to 7997
  154.5706  140.2347  155.8206 H   0  0  0  0  0  0  0  0  0  0  0  0  # atno 8010 bound_to 7997
  139.5815  144.6988  151.3517 H   0  0  0  0  0  0  0  0  0  0  0  0  # atno 10167 bound_to 10162
  156.2453  130.7120  151.0998 H   0  0  0  0  0  0  0  0  0  0  0  0  # atno 10718 bound_to 10713
  154.8464  135.3464  154.6211 H   0  0  0  0  0  0  0  0  0  0  0  0  # atno 10763 bound_to 10752
  153.6820  135.6979  153.5120 H   0  0  0  0  0  0  0  0  0  0  0  0  # atno 10764 bound_to 10752
  153.2661  135.4307  155.0898 H   0  0  0  0  0  0  0  0  0  0  0  0  # atno 10765 bound_to 10752
  140.6506  134.4455  157.5235 H   0  0  0  0  0  0  0  0  0  0  0  0  # atno 11005 bound_to 11000
  144.6904  139.9267  143.7470 LP  0  0  0  0  0  0  0  0  0  0  0  0  # atno 17320 bound_to 7965
  146.0582  139.3577  143.0598 LP  0  0  0  0  0  0  0  0  0  0  0  0  # atno 17321 bound_to 7965
  140.7092  143.7434  150.7537 LP  0  0  0  0  0  0  0  0  0  0  0  0  # atno 17342 bound_to 10162
  140.0967  143.4826  152.2448 LP  0  0  0  0  0  0  0  0  0  0  0  0  # atno 17343 bound_to 10162
  157.7192  131.0691  150.6204 LP  0  0  0  0  0  0  0  0  0  0  0  0  # atno 17370 bound_to 10713
  156.6280  130.4424  149.5797 LP  0  0  0  0  0  0  0  0  0  0  0  0  # atno 17371 bound_to 10713
  139.9047  134.8476  156.1753 LP  0  0  0  0  0  0  0  0  0  0  0  0  # atno 17394 bound_to 11000
  141.0539  133.6875  156.1824 LP  0  0  0  0  0  0  0  0  0  0  0  0  # atno 17395 bound_to 11000

$$$$
