AV-unprocessed.smi:3094|AV-procd|sdf|11788|dock2
  -GOLD-   2272017163D 1   1.00000     0.00000
 Structure written by MMmdl.
 30 31  0  0  0  0  0  0  0  0  2 V2000
  152.7092  142.6951  162.2575 C   0  0  0  0  0  0  0  0  0  0  0  0
  153.2836  142.0568  160.9856 C   0  0  2  0  0  0  0  0  0  0  0  0
  152.1963  141.8966  159.9011 C   0  0  0  0  0  0  0  0  0  0  0  0
  151.7947  143.1734  159.3013 N   0  0  0  0  0  0  0  0  0  0  0  0
  152.2209  144.4272  159.6573 C   0  0  0  0  0  0  0  0  0  0  0  0
  151.5911  145.3079  158.8163 C   0  0  0  0  0  0  0  0  0  0  0  0
  150.8034  144.5557  157.9866 N   0  3  0  0  0  0  0  0  0  0  0  0
  150.9248  143.2583  158.2862 C   0  0  0  0  0  0  0  0  0  0  0  0
  153.8780  140.7663  161.3333 N   0  0  0  0  0  0  0  0  0  0  0  0
  154.4692  139.9161  160.4788 C   0  0  0  0  0  0  0  0  0  0  0  0
  154.5602  140.1327  159.2694 O   0  0  0  0  0  0  0  0  0  0  0  0
  154.9904  138.6745  161.1241 C   0  0  0  0  0  0  0  0  0  0  0  0
  154.0070  137.8085  161.8851 C   0  0  0  0  0  0  0  0  0  0  0  0
  155.0197  138.6342  162.6382 C   0  0  0  0  0  0  0  0  0  0  0  0
  152.2873  143.6782  162.0473 H   0  0  0  0  0  0  0  0  0  0  0  0
  153.4828  142.8263  163.0152 H   0  0  0  0  0  0  0  0  0  0  0  0
  151.9190  142.0804  162.6904 H   0  0  0  0  0  0  0  0  0  0  0  0
  154.0586  142.7290  160.6124 H   0  0  0  0  0  0  0  0  0  0  0  0
  152.5299  141.2247  159.1085 H   0  0  0  0  0  0  0  0  0  0  0  0
  151.2973  141.4532  160.3315 H   0  0  0  0  0  0  0  0  0  0  0  0
  152.9283  144.5941  160.4568 H   0  0  0  0  0  0  0  0  0  0  0  0
  151.6441  146.3847  158.7471 H   0  0  0  0  0  0  0  0  0  0  0  0
  150.4272  142.4404  157.7962 H   0  0  0  0  0  0  0  0  0  0  0  0
  153.8512  140.5052  162.3087 H   0  0  0  0  0  0  0  0  0  0  0  0
  155.7999  138.1600  160.6079 H   0  0  0  0  0  0  0  0  0  0  0  0
  152.9662  138.1237  161.9377 H   0  0  0  0  0  0  0  0  0  0  0  0
  154.1583  136.7320  161.8387 H   0  0  0  0  0  0  0  0  0  0  0  0
  155.8574  138.1167  163.1011 H   0  0  0  0  0  0  0  0  0  0  0  0
  154.6516  139.4979  163.1890 H   0  0  0  0  0  0  0  0  0  0  0  0
  150.2148  144.9252  157.2505 H   0  0  0  0  0  0  0  0  0  0  0  0
  1  2  1  0  0  0  0
  1 15  1  0  0  0  0
  1 16  1  0  0  0  0
  1 17  1  0  0  0  0
  2  3  1  0  0  0  0
  2  9  1  0  0  0  0
  2 18  1  0  0  0  0
  3  4  1  0  0  0  0
  3 19  1  0  0  0  0
  3 20  1  0  0  0  0
  4  8  1  0  0  0  0
  4  5  1  0  0  0  0
  5  6  2  0  0  0  0
  5 21  1  0  0  0  0
  6  7  1  0  0  0  0
  6 22  1  0  0  0  0
  7  8  2  0  0  0  0
  7 30  1  0  0  0  0
  8 23  1  0  0  0  0
  9 10  1  0  0  0  0
  9 24  1  0  0  0  0
 10 11  2  0  0  0  0
 10 12  1  0  0  0  0
 12 14  1  0  0  0  0
 12 13  1  0  0  0  0
 12 25  1  0  0  0  0
 13 14  1  0  0  0  0
 13 26  1  0  0  0  0
 13 27  1  0  0  0  0
 14 28  1  0  0  0  0
 14 29  1  0  0  0  0
M  CHG  1   7   1
M  END
> <s_m_source_file>
AV-unprocessed.smi

> <i_m_source_file_index>
3094

> <i_lp_mmshare_version>
43012

> <i_f3d_flags>
0

> <s_epik_input>
W0NIMl0xW0NIMl1bQ0hdMUMoPU8pW05IXVtDQEhdKFtDSDNdKVtDSDJdbjJbY0hdW2NIXW5bY0hdMg==

> <s_epik_cmdline>
J2VwaWtfcHl0aG9uJywgJy1waCcsICc3LjAnLCAnLXRuJywgJzgnLCAnLW1hJywgJzIwMCcsICctbWV0YWxfYmluZGluZycsICctaW1hZScsICc8aW5maWxlLm1hZT4nLCAnLW9tYWUnLCAnPG91dGZpbGUubWFlPic=

> <r_lp_tautomer_probability>
1

> <r_epik_Ionization_Penalty>
0.244425

> <r_epik_Ionization_Penalty_Charging>
0

> <r_epik_Ionization_Penalty_Neutral>
0.244425

> <r_epik_State_Penalty>
0.23553

> <r_epik_Charging_Adjusted_Penalty>
0.23553

> <i_epik_Tot_Q>
1

> <i_epik_Tot_abs_Q>
1

> <r_epik_Metal_State_Penalty>
0.528799

> <b_epik_Metal_Only>
0

> <s_lp_Force_Field>
OPLS_2005

> <r_lp_Energy>
8.8376

> <b_lp_Chiralities_Consistent>
1

> <s_lp_Variant>
AV-unprocessed.smi:3094-1

> <Gold.Version>
5.8.1

> <Gold.Id.Protein>
6NUR|6NUR_protein|mol2

> <Gold.PLP.Fitness>
43.5465

> <Gold.PLP.PLP>
-34.9290

> <Gold.PLP.part.hbond>
-2.0000

> <Gold.PLP.part.metal>
0.0000

> <Gold.PLP.part.buried>
-3.9869

> <Gold.PLP.part.nonpolar>
-28.4120

> <Gold.PLP.part.repulsive>
0.0960

> <Gold.PLP.ligand.clash>
0.0676

> <Gold.PLP.ligand.torsion>
0.2042

> <Gold.PLP.Chemscore.Hbond>
3.0000

> <Gold.PLP.Chemscore.CHOScore>
0.0000

> <Gold.PLP.Chemscore.Metal>
0.0000

> <Gold.Chemscore.Hbonds>
donor molecule, donor type, donor heavy atom, donor atom, acceptor molecule, acceptor atom, score
      L1  H     7    30       P1  8028  1.69
      P1  H  7997  8008       L1    11  0.98

> <Gold.PLP.Chemscore.Internal.Correction>
0.0936

> <Gold.Rescore>
     Score         DG    S(hbond)    S(metal)    S(lipo)     H(rot)  DE(clash)    DE(int)     intcor
     15.77     -16.00       1.93        0.00      76.55       1.90       0.02       0.21       ----

> <Gold.Chemscore.Fitness>
15.7654

> <Gold.Chemscore.DG>
-15.9968

> <Gold.Chemscore.ZeroCoef>
-5.4800

> <Gold.Chemscore.Hbond>
1.9250

> <Gold.Chemscore.Metal>
0.0000

> <Gold.Chemscore.Lipo>
76.5480

> <Gold.Chemscore.Internal_Hbond>
0.0000

> <Gold.Chemscore.DEClash>
0.0231

> <Gold.Chemscore.DEInternal>
0.2082

> <Gold.Chemscore.Rot>
1.9019

> <Gold.Chemscore.Internal.Correction>
   9.000000E+99

> <Gold.Chemscore.Hbonds>
donor molecule, donor type, donor heavy atom, donor atom, acceptor molecule, acceptor atom, score
      L1  H     7    30       P1  8028  0.13
      P1  H  7997  8008       L1    11  0.90

> <Gold.Chemscore.Hbond.Weighted>
-6.4296

> <Gold.Chemscore.Metal.Weighted>
-0.0000

> <Gold.Chemscore.Lipo.Weighted>
-8.9561

> <Gold.Chemscore.Internal_Hbond.Weighted>
0.0000

> <Gold.Chemscore.DEClash.Weighted>
0.0231

> <Gold.Chemscore.DEInternal.Weighted>
0.2082

> <Gold.Chemscore.Rot.Weighted>
4.8689

> <Gold.Chemscore.Internal.Correction.Weighted>
   9.000000E+99

> <Gold.Protein.RotatedTorsions>
[ 6907 6896 6895 6894 ] final  -24.58 input  -60.11 | X-H torsion
[ 7974 7965 7964 7962 ] final  -33.95 input  175.53 | X-H torsion
[ 8008 7997 7996 7995 ] final -120.66 input   59.86 | X-H torsion
[ 10167 10162 10161 10158 ] final   60.63 input  -65.29 | X-H torsion
[ 10718 10713 10712 10709 ] final  -43.02 input   66.30 | X-H torsion
[ 10763 10752 10751 10750 ] final   83.71 input  -60.55 | X-H torsion
[ 11005 11000 10999 10996 ] final  -35.46 input  -57.11 | X-H torsion

> <Gold.Protein.ActiveResidues>
 VAL166  LYS551  ARG553  GLY616  TRP617  ASP618  TYR619  PRO620  LYS621  CYS622 
 ASP623  PHE694  ASN695  SER759  ASP760  ASP761  ALA762  ILE779  LEU786  VAL792 
 PHE793  MET794  SER795  GLU796  ALA797  LYS798  CYS799  TRP800  GLU811  SER814 

> <Gold.Protein.RotatedAtoms>
  151.1875  135.0388  159.8818 H   0  0  0  0  0  0  0  0  0  0  0  0  # atno 6907 bound_to 6896
  152.5441  134.0994  159.8321 H   0  0  0  0  0  0  0  0  0  0  0  0  # atno 6908 bound_to 6896
  151.1118  133.5120  159.2637 H   0  0  0  0  0  0  0  0  0  0  0  0  # atno 6909 bound_to 6896
  146.0869  140.5979  142.8882 H   0  0  0  0  0  0  0  0  0  0  0  0  # atno 7974 bound_to 7965
  155.1353  140.0401  157.2785 H   0  0  0  0  0  0  0  0  0  0  0  0  # atno 8008 bound_to 7997
  154.6512  140.2569  155.7185 H   0  0  0  0  0  0  0  0  0  0  0  0  # atno 8009 bound_to 7997
  156.2578  140.2836  156.0947 H   0  0  0  0  0  0  0  0  0  0  0  0  # atno 8010 bound_to 7997
  140.1635  144.4347  150.6697 H   0  0  0  0  0  0  0  0  0  0  0  0  # atno 10167 bound_to 10162
  156.2534  130.4190  149.8623 H   0  0  0  0  0  0  0  0  0  0  0  0  # atno 10718 bound_to 10713
  153.1316  135.4681  154.9357 H   0  0  0  0  0  0  0  0  0  0  0  0  # atno 10763 bound_to 10752
  154.7669  135.3147  154.8270 H   0  0  0  0  0  0  0  0  0  0  0  0  # atno 10764 bound_to 10752
  153.8812  135.6894  153.4821 H   0  0  0  0  0  0  0  0  0  0  0  0  # atno 10765 bound_to 10752
  140.9798  133.7062  156.1665 H   0  0  0  0  0  0  0  0  0  0  0  0  # atno 11005 bound_to 11000
  144.7332  140.4733  143.6922 LP  0  0  0  0  0  0  0  0  0  0  0  0  # atno 17320 bound_to 7965
  145.6112  139.1513  143.3074 LP  0  0  0  0  0  0  0  0  0  0  0  0  # atno 17321 bound_to 7965
  140.6628  143.2258  151.5815 LP  0  0  0  0  0  0  0  0  0  0  0  0  # atno 17342 bound_to 10162
  139.5370  144.2752  152.1273 LP  0  0  0  0  0  0  0  0  0  0  0  0  # atno 17343 bound_to 10162
  156.6164  130.8608  151.3466 LP  0  0  0  0  0  0  0  0  0  0  0  0  # atno 17370 bound_to 10713
  157.7223  130.9575  150.1490 LP  0  0  0  0  0  0  0  0  0  0  0  0  # atno 17371 bound_to 10713
  140.7203  134.4365  157.5575 LP  0  0  0  0  0  0  0  0  0  0  0  0  # atno 17394 bound_to 11000
  139.8945  134.8704  156.2172 LP  0  0  0  0  0  0  0  0  0  0  0  0  # atno 17395 bound_to 11000

$$$$
