AV-unprocessed.smi:48|AV-procd|sdf|450|dock4
  -GOLD-   2262016313D 1   1.00000     0.00000
 Structure written by MMmdl.
 30 32  0  0  0  0  0  0  0  0  1 V2000
  146.3708  139.9612  152.9698 O   0  0  0  0  0  0  0  0  0  0  0  0
  146.7675  140.4899  154.2174 C   0  0  0  0  0  0  0  0  0  0  0  0
  147.9622  139.6977  154.7776 C   0  0  2  0  0  0  0  0  0  0  0  0
  148.2457  140.0837  156.1157 O   0  0  0  0  0  0  0  0  0  0  0  0
  149.5308  139.6599  156.4482 C   0  0  2  0  0  0  0  0  0  0  0  0
  150.1550  140.6931  157.3342 N   0  0  0  0  0  0  0  0  0  0  0  0
  149.8364  142.0015  157.4095 C   0  0  0  0  0  0  0  0  0  0  0  0
  150.5190  142.7518  158.2734 N   0  0  0  0  0  0  0  0  0  0  0  0
  151.3830  141.8203  158.8247 C   0  0  0  0  0  0  0  0  0  0  0  0
  152.3933  141.9166  159.8124 C   0  0  0  0  0  0  0  0  0  0  0  0
  152.7445  143.4213  160.5811 Cl  0  0  0  0  0  0  0  0  0  0  0  0
  153.0816  140.7981  160.1428 N   0  0  0  0  0  0  0  0  0  0  0  0
  152.7899  139.6442  159.5299 C   0  0  0  0  0  0  0  0  0  0  0  0
  151.8729  139.4026  158.5865 N   0  0  0  0  0  0  0  0  0  0  0  0
  151.1778  140.5309  158.2555 C   0  0  0  0  0  0  0  0  0  0  0  0
  150.3084  139.4359  155.1324 C   0  0  2  0  0  0  0  0  0  0  0  0
  151.5575  140.0989  155.0342 O   0  0  0  0  0  0  0  0  0  0  0  0
  149.3092  139.8570  154.0559 C   0  0  2  0  0  0  0  0  0  0  0  0
  149.5064  141.1906  153.6181 O   0  0  0  0  0  0  0  0  0  0  0  0
  147.7046  138.6371  154.8033 H   0  0  0  0  0  0  0  0  0  0  0  0
  149.4824  138.7607  157.0643 H   0  0  0  0  0  0  0  0  0  0  0  0
  150.4874  138.3630  155.0510 H   0  0  0  0  0  0  0  0  0  0  0  0
  149.3706  139.2085  153.1813 H   0  0  0  0  0  0  0  0  0  0  0  0
  145.4545  140.1532  152.8399 H   0  0  0  0  0  0  0  0  0  0  0  0
  146.9998  141.5501  154.1130 H   0  0  0  0  0  0  0  0  0  0  0  0
  145.9231  140.4187  154.9033 H   0  0  0  0  0  0  0  0  0  0  0  0
  149.0556  142.4276  156.7966 H   0  0  0  0  0  0  0  0  0  0  0  0
  153.3755  138.7912  159.8390 H   0  0  0  0  0  0  0  0  0  0  0  0
  152.2218  139.5254  155.3860 H   0  0  0  0  0  0  0  0  0  0  0  0
  149.5881  141.7449  154.3792 H   0  0  0  0  0  0  0  0  0  0  0  0
  1  2  1  0  0  0  0
  1 24  1  0  0  0  0
  2  3  1  0  0  0  0
  2 25  1  0  0  0  0
  2 26  1  0  0  0  0
  3 20  1  0  0  0  0
  3 18  1  0  0  0  0
  3  4  1  0  0  0  0
  4  5  1  0  0  0  0
  5 21  1  0  0  0  0
  5  6  1  0  0  0  0
  5 16  1  0  0  0  0
  6 15  1  0  0  0  0
  6  7  1  0  0  0  0
  7  8  2  0  0  0  0
  7 27  1  0  0  0  0
  8  9  1  0  0  0  0
  9 15  2  0  0  0  0
  9 10  1  0  0  0  0
 10 11  1  0  0  0  0
 10 12  2  0  0  0  0
 12 13  1  0  0  0  0
 13 14  2  0  0  0  0
 13 28  1  0  0  0  0
 14 15  1  0  0  0  0
 16 22  1  0  0  0  0
 16 17  1  0  0  0  0
 16 18  1  0  0  0  0
 17 29  1  0  0  0  0
 18 23  1  0  0  0  0
 18 19  1  0  0  0  0
 19 30  1  0  0  0  0
M  END
> <s_m_source_file>
AV-unprocessed.smi

> <i_m_source_file_index>
48

> <i_lp_mmshare_version>
43012

> <i_f3d_flags>
0

> <s_epik_input>
W09IXVtDSDJdW0NASF0xT1tDQEhdKFtDQEhdKFtPSF0pW0NAQEhdMVtPSF0pbihbY0hdbjIpYyhjMjMpbltjSF1uYzNDbA==

> <s_epik_cmdline>
J2VwaWtfcHl0aG9uJywgJy1waCcsICc3LjAnLCAnLXRuJywgJzgnLCAnLW1hJywgJzIwMCcsICctbWV0YWxfYmluZGluZycsICctaW1hZScsICc8aW5maWxlLm1hZT4nLCAnLW9tYWUnLCAnPG91dGZpbGUubWFlPic=

> <r_lp_tautomer_probability>
1

> <r_epik_Ionization_Penalty>
3.45505e-06

> <r_epik_Ionization_Penalty_Charging>
0

> <r_epik_Ionization_Penalty_Neutral>
3.45505e-06

> <r_epik_State_Penalty>
-0

> <r_epik_Charging_Adjusted_Penalty>
0

> <i_epik_Tot_Q>
0

> <i_epik_Tot_abs_Q>
0

> <r_epik_Metal_State_Penalty>
-0

> <b_epik_Metal_Only>
0

> <s_epik_Chemistry_Notes>
This compound contains an acetal/aminal-like group ( X-CH(R)-Y where X, Y are N, S, or O) that may be acid/base labile, releasing an aldehyde.

> <s_lp_Force_Field>
OPLS_2005

> <r_lp_Energy>
43.6519

> <b_lp_Chiralities_Consistent>
1

> <s_lp_Variant>
AV-unprocessed.smi:48-4

> <Gold.Version>
5.8.1

> <Gold.Id.Protein>
6NUR|6NUR_protein|mol2

> <Gold.PLP.Fitness>
38.7776

> <Gold.PLP.PLP>
-28.6839

> <Gold.PLP.part.hbond>
-5.0000

> <Gold.PLP.part.metal>
0.0000

> <Gold.PLP.part.buried>
-4.1091

> <Gold.PLP.part.nonpolar>
-19.4674

> <Gold.PLP.part.repulsive>
0.1260

> <Gold.PLP.ligand.clash>
0.0000

> <Gold.PLP.ligand.torsion>
0.7330

> <Gold.PLP.Chemscore.Hbond>
2.8784

> <Gold.PLP.Chemscore.CHOScore>
0.9747

> <Gold.PLP.Chemscore.Metal>
0.0000

> <Gold.Chemscore.Hbonds>
donor molecule, donor type, donor heavy atom, donor atom, acceptor molecule, acceptor atom, score
      L1  H     1    24       P1 10175  1.00
      P1  H  7989  7998       L1    17  1.00
      P1  H  8011  8017       L1    19  0.91
      L1  C     7    27       P1  8028  0.92

> <Gold.PLP.Chemscore.Internal.Correction>
0.0006

> <Gold.Rescore>
     Score         DG    S(hbond)    S(metal)    S(lipo)     H(rot)  DE(clash)    DE(int)     intcor
      8.94      -9.44       2.32        0.00      50.87       3.80       0.15       0.35       ----

> <Gold.Chemscore.Fitness>
8.9376

> <Gold.Chemscore.DG>
-9.4378

> <Gold.Chemscore.ZeroCoef>
-5.4800

> <Gold.Chemscore.Hbond>
2.3168

> <Gold.Chemscore.Metal>
0.0000

> <Gold.Chemscore.Lipo>
50.8732

> <Gold.Chemscore.Internal_Hbond>
0.0000

> <Gold.Chemscore.DEClash>
0.1470

> <Gold.Chemscore.DEInternal>
0.3532

> <Gold.Chemscore.Rot>
3.8017

> <Gold.Chemscore.Internal.Correction>
   9.000000E+99

> <Gold.Chemscore.Hbonds>
donor molecule, donor type, donor heavy atom, donor atom, acceptor molecule, acceptor atom, score
      L1  H     1    24       P1 10175  0.98
      P1  H  7989  7998       L1    17  0.67
      P1  H  8011  8017       L1    19  0.20

> <Gold.Chemscore.Hbond.Weighted>
-7.7380

> <Gold.Chemscore.Metal.Weighted>
-0.0000

> <Gold.Chemscore.Lipo.Weighted>
-5.9522

> <Gold.Chemscore.Internal_Hbond.Weighted>
0.0000

> <Gold.Chemscore.DEClash.Weighted>
0.1470

> <Gold.Chemscore.DEInternal.Weighted>
0.3532

> <Gold.Chemscore.Rot.Weighted>
9.7324

> <Gold.Chemscore.Internal.Correction.Weighted>
   9.000000E+99

> <Gold.Protein.RotatedTorsions>
[ 6907 6896 6895 6894 ] final -160.79 input  -60.11 | X-H torsion
[ 7974 7965 7964 7962 ] final  102.45 input  175.53 | X-H torsion
[ 8008 7997 7996 7995 ] final  -93.19 input   59.86 | X-H torsion
[ 10167 10162 10161 10158 ] final   27.89 input  -65.29 | X-H torsion
[ 10718 10713 10712 10709 ] final   46.87 input   66.30 | X-H torsion
[ 10763 10752 10751 10750 ] final  122.95 input  -60.55 | X-H torsion
[ 11005 11000 10999 10996 ] final  133.05 input  -57.11 | X-H torsion

> <Gold.Protein.ActiveResidues>
 VAL166  LYS551  ARG553  GLY616  TRP617  ASP618  TYR619  PRO620  LYS621  CYS622 
 ASP623  PHE694  ASN695  SER759  ASP760  ASP761  ALA762  ILE779  LEU786  VAL792 
 PHE793  MET794  SER795  GLU796  ALA797  LYS798  CYS799  TRP800  GLU811  SER814 

> <Gold.Protein.RotatedAtoms>
  151.3545  133.3913  159.2683 H   0  0  0  0  0  0  0  0  0  0  0  0  # atno 6907 bound_to 6896
  150.9775  134.9137  159.7835 H   0  0  0  0  0  0  0  0  0  0  0  0  # atno 6908 bound_to 6896
  152.5206  134.3508  159.9302 H   0  0  0  0  0  0  0  0  0  0  0  0  # atno 6909 bound_to 6896
  145.3589  139.2422  143.3517 H   0  0  0  0  0  0  0  0  0  0  0  0  # atno 7974 bound_to 7965
  154.7326  140.0501  157.0740 H   0  0  0  0  0  0  0  0  0  0  0  0  # atno 8008 bound_to 7997
  155.0282  140.3155  155.4749 H   0  0  0  0  0  0  0  0  0  0  0  0  # atno 8009 bound_to 7997
  156.2845  140.2154  156.5403 H   0  0  0  0  0  0  0  0  0  0  0  0  # atno 8010 bound_to 7997
  140.4900  144.0482  150.6294 H   0  0  0  0  0  0  0  0  0  0  0  0  # atno 10167 bound_to 10162
  157.4526  130.8148  149.7804 H   0  0  0  0  0  0  0  0  0  0  0  0  # atno 10718 bound_to 10713
  153.6379  135.3384  155.3062 H   0  0  0  0  0  0  0  0  0  0  0  0  # atno 10763 bound_to 10752
  154.8566  135.4311  154.2036 H   0  0  0  0  0  0  0  0  0  0  0  0  # atno 10764 bound_to 10752
  153.2948  135.7020  153.7333 H   0  0  0  0  0  0  0  0  0  0  0  0  # atno 10765 bound_to 10752
  139.9828  134.9542  156.9670 H   0  0  0  0  0  0  0  0  0  0  0  0  # atno 11005 bound_to 11000
  146.2936  140.4220  142.8730 LP  0  0  0  0  0  0  0  0  0  0  0  0  # atno 17320 bound_to 7965
  144.8661  140.7208  143.6076 LP  0  0  0  0  0  0  0  0  0  0  0  0  # atno 17321 bound_to 7965
  140.3748  143.2834  152.0237 LP  0  0  0  0  0  0  0  0  0  0  0  0  # atno 17342 bound_to 10162
  139.4849  144.6201  151.7271 LP  0  0  0  0  0  0  0  0  0  0  0  0  # atno 17343 bound_to 10162
  155.9993  130.3889  150.2667 LP  0  0  0  0  0  0  0  0  0  0  0  0  # atno 17370 bound_to 10713
  157.0840  131.0151  151.3146 LP  0  0  0  0  0  0  0  0  0  0  0  0  # atno 17371 bound_to 10713
  140.5063  134.1047  155.7260 LP  0  0  0  0  0  0  0  0  0  0  0  0  # atno 17394 bound_to 11000
  141.1497  133.8990  157.2127 LP  0  0  0  0  0  0  0  0  0  0  0  0  # atno 17395 bound_to 11000

$$$$
