AV-unprocessed.smi:1005|AV-procd|sdf|4387|dock8
  -GOLD-   22720 2313D 1   1.00000     0.00000
 Structure written by MMmdl.
 55 57  0  0  0  0  0  0  0  0  1 V2000
  153.3417  142.5013  161.7927 C   0  0  0  0  0  0  0  0  0  0  0  0
  152.7296  142.2851  160.4200 C   0  0  0  0  0  0  0  0  0  0  0  0
  153.0621  141.1178  159.6959 C   0  0  0  0  0  0  0  0  0  0  0  0
  152.5146  140.8786  158.4164 C   0  0  0  0  0  0  0  0  0  0  0  0
  152.6985  139.8205  157.5427 N   0  0  0  0  0  0  0  0  0  0  0  0
  151.9218  140.1763  156.5233 C   0  0  0  0  0  0  0  0  0  0  0  0
  151.2559  141.3420  156.6335 N   0  0  0  0  0  0  0  0  0  0  0  0
  150.3562  141.9360  155.6611 C   0  0  0  0  0  0  0  0  0  0  0  0
  149.0040  141.2026  155.5886 C   0  0  1  0  0  0  0  0  0  0  0  0
  147.9654  142.1547  155.4600 O   0  0  0  0  0  0  0  0  0  0  0  0
  148.9473  140.2380  154.3861 C   0  0  0  0  0  0  0  0  0  0  0  0
  147.9152  139.2020  154.4521 N   0  0  0  0  0  0  0  0  0  0  0  0
  147.2569  139.0408  153.1608 C   0  0  0  0  0  0  0  0  0  0  0  0
  146.1716  137.9528  153.2007 C   0  0  0  0  0  0  0  0  0  0  0  0
  146.7477  136.7284  153.6436 O   0  0  0  0  0  0  0  0  0  0  0  0
  147.3374  136.8244  154.9386 C   0  0  1  0  0  0  0  0  0  0  0  0
  147.8826  135.4305  155.3135 C   0  0  0  0  0  0  0  0  0  0  0  0
  149.0665  134.9908  154.5725 N   0  0  0  0  0  0  0  0  0  0  0  0
  149.1587  133.5401  154.4666 C   0  0  0  0  0  0  0  0  0  0  0  0
  150.2787  135.5311  155.1719 C   0  0  0  0  0  0  0  0  0  0  0  0
  148.4397  137.9049  154.8763 C   0  0  0  0  0  0  0  0  0  0  0  0
  151.6175  141.8465  157.8775 C   0  0  0  0  0  0  0  0  0  0  0  0
  151.2788  143.0115  158.5880 C   0  0  0  0  0  0  0  0  0  0  0  0
  151.8348  143.2352  159.8649 C   0  0  0  0  0  0  0  0  0  0  0  0
  151.4638  144.4978  160.6226 C   0  0  0  0  0  0  0  0  0  0  0  0
  154.0517  141.7117  162.0411 H   0  0  0  0  0  0  0  0  0  0  0  0
  152.5657  142.5072  162.5586 H   0  0  0  0  0  0  0  0  0  0  0  0
  153.8739  143.4520  161.8304 H   0  0  0  0  0  0  0  0  0  0  0  0
  153.7429  140.3935  160.1184 H   0  0  0  0  0  0  0  0  0  0  0  0
  151.8331  139.5551  155.6440 H   0  0  0  0  0  0  0  0  0  0  0  0
  150.2108  142.9879  155.9118 H   0  0  0  0  0  0  0  0  0  0  0  0
  150.8491  141.9122  154.6885 H   0  0  0  0  0  0  0  0  0  0  0  0
  148.8599  140.6651  156.5244 H   0  0  0  0  0  0  0  0  0  0  0  0
  148.3382  143.0194  155.5365 H   0  0  0  0  0  0  0  0  0  0  0  0
  148.8031  140.8333  153.4830 H   0  0  0  0  0  0  0  0  0  0  0  0
  149.9204  139.7585  154.2680 H   0  0  0  0  0  0  0  0  0  0  0  0
  146.8073  139.9855  152.8527 H   0  0  0  0  0  0  0  0  0  0  0  0
  147.9949  138.7835  152.3992 H   0  0  0  0  0  0  0  0  0  0  0  0
  145.3558  138.2428  153.8646 H   0  0  0  0  0  0  0  0  0  0  0  0
  145.7426  137.8072  152.2094 H   0  0  0  0  0  0  0  0  0  0  0  0
  146.5575  137.1162  155.6451 H   0  0  0  0  0  0  0  0  0  0  0  0
  148.1518  135.4646  156.3703 H   0  0  0  0  0  0  0  0  0  0  0  0
  147.0903  134.6836  155.2429 H   0  0  0  0  0  0  0  0  0  0  0  0
  150.0768  133.2474  153.9560 H   0  0  0  0  0  0  0  0  0  0  0  0
  148.3302  133.1358  153.8859 H   0  0  0  0  0  0  0  0  0  0  0  0
  149.1546  133.0707  155.4513 H   0  0  0  0  0  0  0  0  0  0  0  0
  151.1568  135.2520  154.5887 H   0  0  0  0  0  0  0  0  0  0  0  0
  150.4143  135.1607  156.1889 H   0  0  0  0  0  0  0  0  0  0  0  0
  150.2420  136.6205  155.2087 H   0  0  0  0  0  0  0  0  0  0  0  0
  149.2242  137.5838  154.1891 H   0  0  0  0  0  0  0  0  0  0  0  0
  148.9059  137.9899  155.8544 H   0  0  0  0  0  0  0  0  0  0  0  0
  150.5970  143.7268  158.1521 H   0  0  0  0  0  0  0  0  0  0  0  0
  150.7155  145.0795  160.0832 H   0  0  0  0  0  0  0  0  0  0  0  0
  152.3416  145.1290  160.7636 H   0  0  0  0  0  0  0  0  0  0  0  0
  151.0521  144.2521  161.6018 H   0  0  0  0  0  0  0  0  0  0  0  0
  1  2  1  0  0  0  0
  1 26  1  0  0  0  0
  1 27  1  0  0  0  0
  1 28  1  0  0  0  0
  2 24  1  0  0  0  0
  2  3  2  0  0  0  0
  3  4  1  0  0  0  0
  3 29  1  0  0  0  0
  4 22  2  0  0  0  0
  4  5  1  0  0  0  0
  5  6  2  0  0  0  0
  6  7  1  0  0  0  0
  6 30  1  0  0  0  0
  7  8  1  0  0  0  0
  7 22  1  0  0  0  0
  8  9  1  0  0  0  0
  8 31  1  0  0  0  0
  8 32  1  0  0  0  0
  9 10  1  0  0  0  0
  9 11  1  0  0  0  0
  9 33  1  0  0  0  0
 10 34  1  0  0  0  0
 11 12  1  0  0  0  0
 11 35  1  0  0  0  0
 11 36  1  0  0  0  0
 12 21  1  0  0  0  0
 12 13  1  0  0  0  0
 13 14  1  0  0  0  0
 13 37  1  0  0  0  0
 13 38  1  0  0  0  0
 14 15  1  0  0  0  0
 14 39  1  0  0  0  0
 14 40  1  0  0  0  0
 15 16  1  0  0  0  0
 16 17  1  0  0  0  0
 16 21  1  0  0  0  0
 16 41  1  0  0  0  0
 17 18  1  0  0  0  0
 17 42  1  0  0  0  0
 17 43  1  0  0  0  0
 18 19  1  0  0  0  0
 18 20  1  0  0  0  0
 19 44  1  0  0  0  0
 19 45  1  0  0  0  0
 19 46  1  0  0  0  0
 20 47  1  0  0  0  0
 20 48  1  0  0  0  0
 20 49  1  0  0  0  0
 21 50  1  0  0  0  0
 21 51  1  0  0  0  0
 22 23  1  0  0  0  0
 23 24  2  0  0  0  0
 23 52  1  0  0  0  0
 24 25  1  0  0  0  0
 25 53  1  0  0  0  0
 25 54  1  0  0  0  0
 25 55  1  0  0  0  0
M  END
> <s_m_source_file>
AV-unprocessed.smi

> <i_m_source_file_index>
1005

> <i_lp_mmshare_version>
43012

> <i_f3d_flags>
0

> <s_epik_input>
W0NIM11jKFtjSF0xKWMoW0NIM10pW2NIXWMoYzEyKW4oW2NIXW4yKVtDSDJdW0NASF0oW09IXSlbQ0gyXU4zW0NIMl1bQ0gyXU9bQ0BIXShbQ0gyXTMpW0NIMl1OKFtDSDNdKVtDSDNd

> <s_epik_cmdline>
J2VwaWtfcHl0aG9uJywgJy1waCcsICc3LjAnLCAnLXRuJywgJzgnLCAnLW1hJywgJzIwMCcsICctbWV0YWxfYmluZGluZycsICctaW1hZScsICc8aW5maWxlLm1hZT4nLCAnLW9tYWUnLCAnPG91dGZpbGUubWFlPic=

> <r_epik_Ionization_Penalty>
2.78613

> <r_epik_Ionization_Penalty_Charging>
0

> <r_epik_Ionization_Penalty_Neutral>
2.78613

> <r_epik_State_Penalty>
2.57336

> <r_epik_Charging_Adjusted_Penalty>
2.57336

> <i_epik_Tot_Q>
0

> <i_epik_Tot_abs_Q>
0

> <r_epik_Metal_State_Penalty>
2.49087

> <b_epik_Metal_Only>
0

> <s_lp_Force_Field>
OPLS_2005

> <r_lp_Energy>
38.3146

> <b_lp_Chiralities_Consistent>
1

> <s_lp_Variant>
AV-unprocessed.smi:1005-26

> <Gold.Version>
5.8.1

> <Gold.Id.Protein>
6NUR|6NUR_protein|mol2

> <Gold.PLP.Fitness>
45.9352

> <Gold.PLP.PLP>
-43.4889

> <Gold.PLP.part.hbond>
-2.0000

> <Gold.PLP.part.metal>
0.0000

> <Gold.PLP.part.buried>
-6.2404

> <Gold.PLP.part.nonpolar>
-36.0399

> <Gold.PLP.part.repulsive>
1.2825

> <Gold.PLP.ligand.clash>
0.0000

> <Gold.PLP.ligand.torsion>
1.8172

> <Gold.PLP.Chemscore.Hbond>
2.0000

> <Gold.PLP.Chemscore.CHOScore>
0.0000

> <Gold.PLP.Chemscore.Metal>
0.0000

> <Gold.Chemscore.Hbonds>
donor molecule, donor type, donor heavy atom, donor atom, acceptor molecule, acceptor atom, score
      L1  H    10    34       P1  8028  1.00
      P1  H  7997  8009       L1     5  1.00

> <Gold.PLP.Chemscore.Internal.Correction>
0.0808

> <Gold.Rescore>
     Score         DG    S(hbond)    S(metal)    S(lipo)     H(rot)  DE(clash)    DE(int)     intcor
     16.66     -18.84       1.37        0.00     125.29       2.29       0.26       1.92       ----

> <Gold.Chemscore.Fitness>
16.6603

> <Gold.Chemscore.DG>
-18.8372

> <Gold.Chemscore.ZeroCoef>
-5.4800

> <Gold.Chemscore.Hbond>
1.3653

> <Gold.Chemscore.Metal>
0.0000

> <Gold.Chemscore.Lipo>
125.2853

> <Gold.Chemscore.Internal_Hbond>
0.0000

> <Gold.Chemscore.DEClash>
0.2556

> <Gold.Chemscore.DEInternal>
1.9213

> <Gold.Chemscore.Rot>
2.2895

> <Gold.Chemscore.Internal.Correction>
   9.000000E+99

> <Gold.Chemscore.Hbonds>
donor molecule, donor type, donor heavy atom, donor atom, acceptor molecule, acceptor atom, score
      L1  H    10    34       P1  8028  0.98
      P1  H  7997  8009       L1     5  0.22

> <Gold.Chemscore.Hbond.Weighted>
-4.5600

> <Gold.Chemscore.Metal.Weighted>
-0.0000

> <Gold.Chemscore.Lipo.Weighted>
-14.6584

> <Gold.Chemscore.Internal_Hbond.Weighted>
0.0000

> <Gold.Chemscore.DEClash.Weighted>
0.2556

> <Gold.Chemscore.DEInternal.Weighted>
1.9213

> <Gold.Chemscore.Rot.Weighted>
5.8612

> <Gold.Chemscore.Internal.Correction.Weighted>
   9.000000E+99

> <Gold.Protein.RotatedTorsions>
[ 6907 6896 6895 6894 ] final  -21.87 input  -60.11 | X-H torsion
[ 7974 7965 7964 7962 ] final   93.67 input  175.53 | X-H torsion
[ 8008 7997 7996 7995 ] final  161.54 input   59.86 | X-H torsion
[ 10167 10162 10161 10158 ] final -179.85 input  -65.29 | X-H torsion
[ 10718 10713 10712 10709 ] final   93.06 input   66.30 | X-H torsion
[ 10763 10752 10751 10750 ] final  101.55 input  -60.55 | X-H torsion
[ 11005 11000 10999 10996 ] final  135.40 input  -57.11 | X-H torsion

> <Gold.Protein.ActiveResidues>
 VAL166  LYS551  ARG553  GLY616  TRP617  ASP618  TYR619  PRO620  LYS621  CYS622 
 ASP623  PHE694  ASN695  SER759  ASP760  ASP761  ALA762  ILE779  LEU786  VAL792 
 PHE793  MET794  SER795  GLU796  ALA797  LYS798  CYS799  TRP800  GLU811  SER814 

> <Gold.Protein.RotatedAtoms>
  151.2269  135.0540  159.8971 H   0  0  0  0  0  0  0  0  0  0  0  0  # atno 6907 bound_to 6896
  152.5409  134.0579  159.8149 H   0  0  0  0  0  0  0  0  0  0  0  0  # atno 6908 bound_to 6896
  151.0753  133.5385  159.2656 H   0  0  0  0  0  0  0  0  0  0  0  0  # atno 6909 bound_to 6896
  145.4759  139.2280  143.2909 H   0  0  0  0  0  0  0  0  0  0  0  0  # atno 7974 bound_to 7965
  156.2095  140.1774  156.7725 H   0  0  0  0  0  0  0  0  0  0  0  0  # atno 8008 bound_to 7997
  154.5703  140.0683  156.8984 H   0  0  0  0  0  0  0  0  0  0  0  0  # atno 8009 bound_to 7997
  155.2685  140.3341  155.4269 H   0  0  0  0  0  0  0  0  0  0  0  0  # atno 8010 bound_to 7997
  139.5368  144.2476  152.0810 H   0  0  0  0  0  0  0  0  0  0  0  0  # atno 10167 bound_to 10162
  157.6956  131.0465  150.3976 H   0  0  0  0  0  0  0  0  0  0  0  0  # atno 10718 bound_to 10713
  153.3282  135.4040  155.1473 H   0  0  0  0  0  0  0  0  0  0  0  0  # atno 10763 bound_to 10752
  154.8617  135.3604  154.5506 H   0  0  0  0  0  0  0  0  0  0  0  0  # atno 10764 bound_to 10752
  153.5943  135.7073  153.5469 H   0  0  0  0  0  0  0  0  0  0  0  0  # atno 10765 bound_to 10752
  139.9977  134.9491  157.0002 H   0  0  0  0  0  0  0  0  0  0  0  0  # atno 11005 bound_to 11000
  146.2369  140.5541  142.8951 LP  0  0  0  0  0  0  0  0  0  0  0  0  # atno 17320 bound_to 7965
  144.7918  140.6045  143.6537 LP  0  0  0  0  0  0  0  0  0  0  0  0  # atno 17321 bound_to 7965
  140.1948  144.4716  150.6461 LP  0  0  0  0  0  0  0  0  0  0  0  0  # atno 17342 bound_to 10162
  140.6578  143.2243  151.5928 LP  0  0  0  0  0  0  0  0  0  0  0  0  # atno 17343 bound_to 10162
  156.4373  130.3984  149.6720 LP  0  0  0  0  0  0  0  0  0  0  0  0  # atno 17370 bound_to 10713
  156.3916  130.7630  151.2631 LP  0  0  0  0  0  0  0  0  0  0  0  0  # atno 17371 bound_to 10713
  140.4786  134.1313  155.7213 LP  0  0  0  0  0  0  0  0  0  0  0  0  # atno 17394 bound_to 11000
  141.1618  133.8779  157.1827 LP  0  0  0  0  0  0  0  0  0  0  0  0  # atno 17395 bound_to 11000

$$$$
