AV-unprocessed.smi:2953|AV-procd|sdf|11293|dock6
  -GOLD-   2272016183D 1   1.00000     0.00000
 Structure written by MMmdl.
 45 47  0  0  0  0  0  0  0  0  1 V2000
  151.2776  145.2229  160.2769 C   0  0  0  0  0  0  0  0  0  0  0  0
  152.1945  144.0154  160.2319 C   0  0  0  0  0  0  0  0  0  0  0  0
  152.8062  143.5641  161.4202 C   0  0  0  0  0  0  0  0  0  0  0  0
  153.6547  142.4424  161.3997 C   0  0  0  0  0  0  0  0  0  0  0  0
  153.8929  141.7680  160.1893 C   0  0  0  0  0  0  0  0  0  0  0  0
  153.2843  142.2139  159.0007 C   0  0  0  0  0  0  0  0  0  0  0  0
  152.4274  143.3448  159.0080 C   0  0  0  0  0  0  0  0  0  0  0  0
  151.8002  143.8372  157.8815 O   0  0  0  0  0  0  0  0  0  0  0  0
  151.7564  143.0192  156.7196 C   0  0  0  0  0  0  0  0  0  0  0  0
  150.9132  141.7666  156.9952 C   0  0  0  0  0  0  0  0  0  0  0  0
  150.7847  140.9164  155.8195 N   0  0  0  0  0  0  0  0  0  0  0  0
  151.7008  140.0760  155.2687 C   0  0  0  0  0  0  0  0  0  0  0  0
  153.0767  139.8811  155.8597 C   0  0  2  0  0  0  0  0  0  0  0  0
  153.9942  138.9656  155.0258 C   0  0  0  0  0  0  0  0  0  0  0  0
  152.9536  139.4376  157.2487 N   0  0  0  0  0  0  0  0  0  0  0  0
  153.9575  139.3088  158.1277 C   0  0  0  0  0  0  0  0  0  0  0  0
  155.1278  139.5585  157.8500 O   0  0  0  0  0  0  0  0  0  0  0  0
  151.2733  139.3766  154.2140 N   0  0  0  0  0  0  0  0  0  0  0  0
  149.9833  139.8348  154.0400 C   0  0  0  0  0  0  0  0  0  0  0  0
  149.0084  139.4914  153.0760 C   0  0  0  0  0  0  0  0  0  0  0  0
  147.7363  140.0999  153.0998 C   0  0  0  0  0  0  0  0  0  0  0  0
  147.4211  141.0564  154.0865 C   0  0  0  0  0  0  0  0  0  0  0  0
  148.3775  141.4100  155.0577 C   0  0  0  0  0  0  0  0  0  0  0  0
  149.6465  140.8012  155.0279 C   0  0  0  0  0  0  0  0  0  0  0  0
  151.3313  145.7295  161.2410 H   0  0  0  0  0  0  0  0  0  0  0  0
  150.2456  144.9127  160.1124 H   0  0  0  0  0  0  0  0  0  0  0  0
  151.5507  145.9422  159.5042 H   0  0  0  0  0  0  0  0  0  0  0  0
  152.6259  144.0765  162.3539 H   0  0  0  0  0  0  0  0  0  0  0  0
  154.1211  142.0995  162.3115 H   0  0  0  0  0  0  0  0  0  0  0  0
  154.5436  140.9059  160.1715 H   0  0  0  0  0  0  0  0  0  0  0  0
  153.4933  141.6676  158.0940 H   0  0  0  0  0  0  0  0  0  0  0  0
  151.3159  143.5684  155.8862 H   0  0  0  0  0  0  0  0  0  0  0  0
  152.7670  142.7244  156.4326 H   0  0  0  0  0  0  0  0  0  0  0  0
  151.3320  141.1960  157.8230 H   0  0  0  0  0  0  0  0  0  0  0  0
  149.9129  142.0610  157.3142 H   0  0  0  0  0  0  0  0  0  0  0  0
  153.5738  140.8500  155.8881 H   0  0  0  0  0  0  0  0  0  0  0  0
  154.1097  139.3487  154.0123 H   0  0  0  0  0  0  0  0  0  0  0  0
  153.6010  137.9515  154.9476 H   0  0  0  0  0  0  0  0  0  0  0  0
  154.9882  138.9013  155.4688 H   0  0  0  0  0  0  0  0  0  0  0  0
  152.0242  139.2046  157.5667 H   0  0  0  0  0  0  0  0  0  0  0  0
  153.6052  138.9579  159.1099 H   0  0  0  0  0  0  0  0  0  0  0  0
  149.2399  138.7587  152.3171 H   0  0  0  0  0  0  0  0  0  0  0  0
  146.9988  139.8308  152.3578 H   0  0  0  0  0  0  0  0  0  0  0  0
  146.4445  141.5176  154.0982 H   0  0  0  0  0  0  0  0  0  0  0  0
  148.1389  142.1411  155.8157 H   0  0  0  0  0  0  0  0  0  0  0  0
  1  2  1  0  0  0  0
  1 25  1  0  0  0  0
  1 26  1  0  0  0  0
  1 27  1  0  0  0  0
  2  7  1  0  0  0  0
  2  3  2  0  0  0  0
  3  4  1  0  0  0  0
  3 28  1  0  0  0  0
  4  5  2  0  0  0  0
  4 29  1  0  0  0  0
  5  6  1  0  0  0  0
  5 30  1  0  0  0  0
  6  7  2  0  0  0  0
  6 31  1  0  0  0  0
  7  8  1  0  0  0  0
  8  9  1  0  0  0  0
  9 10  1  0  0  0  0
  9 32  1  0  0  0  0
  9 33  1  0  0  0  0
 10 11  1  0  0  0  0
 10 34  1  0  0  0  0
 10 35  1  0  0  0  0
 11 24  1  0  0  0  0
 11 12  1  0  0  0  0
 12 13  1  0  0  0  0
 12 18  2  0  0  0  0
 13 14  1  0  0  0  0
 13 15  1  0  0  0  0
 13 36  1  0  0  0  0
 14 37  1  0  0  0  0
 14 38  1  0  0  0  0
 14 39  1  0  0  0  0
 15 16  1  0  0  0  0
 15 40  1  0  0  0  0
 16 17  2  0  0  0  0
 16 41  1  0  0  0  0
 18 19  1  0  0  0  0
 19 24  2  0  0  0  0
 19 20  1  0  0  0  0
 20 21  2  0  0  0  0
 20 42  1  0  0  0  0
 21 22  1  0  0  0  0
 21 43  1  0  0  0  0
 22 23  2  0  0  0  0
 22 44  1  0  0  0  0
 23 24  1  0  0  0  0
 23 45  1  0  0  0  0
M  END
> <s_m_source_file>
AV-unprocessed.smi

> <i_m_source_file_index>
2953

> <i_lp_mmshare_version>
43012

> <i_f3d_flags>
0

> <s_epik_input>
W0NIM11jMVtjSF1bY0hdW2NIXVtjSF1jMU9bQ0gyXVtDSDJdbihjKG4yKVtDQEhdKFtDSDNdKVtOSF1bQ0hdPU8pYyhjMjMpW2NIXVtjSF1bY0hdW2NIXTM=

> <s_epik_cmdline>
J2VwaWtfcHl0aG9uJywgJy1waCcsICc3LjAnLCAnLXRuJywgJzgnLCAnLW1hJywgJzIwMCcsICctbWV0YWxfYmluZGluZycsICctaW1hZScsICc8aW5maWxlLm1hZT4nLCAnLW9tYWUnLCAnPG91dGZpbGUubWFlPic=

> <r_lp_tautomer_probability>
1

> <r_epik_Ionization_Penalty>
0.0924205

> <r_epik_Ionization_Penalty_Charging>
0

> <r_epik_Ionization_Penalty_Neutral>
0.0924205

> <r_epik_State_Penalty>
0.0827154

> <r_epik_Charging_Adjusted_Penalty>
0.0827154

> <i_epik_Tot_Q>
0

> <i_epik_Tot_abs_Q>
0

> <r_epik_Metal_State_Penalty>
0.071464

> <b_epik_Metal_Only>
0

> <s_lp_Force_Field>
OPLS_2005

> <r_lp_Energy>
13.673

> <b_lp_Chiralities_Consistent>
1

> <s_lp_Variant>
AV-unprocessed.smi:2953-1

> <Gold.Version>
5.8.1

> <Gold.Id.Protein>
6NUR|6NUR_protein|mol2

> <Gold.PLP.Fitness>
56.8884

> <Gold.PLP.PLP>
-54.6379

> <Gold.PLP.part.hbond>
-1.2502

> <Gold.PLP.part.metal>
0.0000

> <Gold.PLP.part.buried>
-0.2562

> <Gold.PLP.part.nonpolar>
-53.3363

> <Gold.PLP.part.repulsive>
0.2982

> <Gold.PLP.ligand.clash>
0.0000

> <Gold.PLP.ligand.torsion>
0.4626

> <Gold.PLP.Chemscore.Hbond>
1.0000

> <Gold.PLP.Chemscore.CHOScore>
0.0000

> <Gold.PLP.Chemscore.Metal>
0.0000

> <Gold.PLP.Chemscore.Internal.Correction>
0.1757

> <Gold.Rescore>
     Score         DG    S(hbond)    S(metal)    S(lipo)     H(rot)  DE(clash)    DE(int)     intcor
     19.09     -19.80       1.00        0.00     143.33       2.26       0.30       0.41       ----

> <Gold.Chemscore.Fitness>
19.0853

> <Gold.Chemscore.DG>
-19.7991

> <Gold.Chemscore.ZeroCoef>
-5.4800

> <Gold.Chemscore.Hbond>
0.9999

> <Gold.Chemscore.Metal>
0.0000

> <Gold.Chemscore.Lipo>
143.3345

> <Gold.Chemscore.Internal_Hbond>
0.0000

> <Gold.Chemscore.DEClash>
0.3016

> <Gold.Chemscore.DEInternal>
0.4122

> <Gold.Chemscore.Rot>
2.2619

> <Gold.Chemscore.Internal.Correction>
   9.000000E+99

> <Gold.Chemscore.Hbond.Weighted>
-3.3395

> <Gold.Chemscore.Metal.Weighted>
-0.0000

> <Gold.Chemscore.Lipo.Weighted>
-16.7701

> <Gold.Chemscore.Internal_Hbond.Weighted>
0.0000

> <Gold.Chemscore.DEClash.Weighted>
0.3016

> <Gold.Chemscore.DEInternal.Weighted>
0.4122

> <Gold.Chemscore.Rot.Weighted>
5.7906

> <Gold.Chemscore.Internal.Correction.Weighted>
   9.000000E+99

> <Gold.Protein.RotatedTorsions>
[ 6907 6896 6895 6894 ] final   44.55 input  -60.11 | X-H torsion
[ 7974 7965 7964 7962 ] final -101.93 input  175.53 | X-H torsion
[ 8008 7997 7996 7995 ] final   34.19 input   59.86 | X-H torsion
[ 10167 10162 10161 10158 ] final -159.89 input  -65.29 | X-H torsion
[ 10718 10713 10712 10709 ] final   -7.44 input   66.30 | X-H torsion
[ 10763 10752 10751 10750 ] final  -62.04 input  -60.55 | X-H torsion
[ 11005 11000 10999 10996 ] final  -27.86 input  -57.11 | X-H torsion

> <Gold.Protein.ActiveResidues>
 VAL166  LYS551  ARG553  GLY616  TRP617  ASP618  TYR619  PRO620  LYS621  CYS622 
 ASP623  PHE694  ASN695  SER759  ASP760  ASP761  ALA762  ILE779  LEU786  VAL792 
 PHE793  MET794  SER795  GLU796  ALA797  LYS798  CYS799  TRP800  GLU811  SER814 

> <Gold.Protein.RotatedAtoms>
  152.2339  134.8295  160.0469 H   0  0  0  0  0  0  0  0  0  0  0  0  # atno 6907 bound_to 6896
  151.9034  133.3538  159.3847 H   0  0  0  0  0  0  0  0  0  0  0  0  # atno 6908 bound_to 6896
  150.7033  134.4730  159.5478 H   0  0  0  0  0  0  0  0  0  0  0  0  # atno 6909 bound_to 6896
  145.2752  140.9310  143.2963 H   0  0  0  0  0  0  0  0  0  0  0  0  # atno 7974 bound_to 7965
  155.1509  140.3274  155.4431 H   0  0  0  0  0  0  0  0  0  0  0  0  # atno 8008 bound_to 7997
  156.2574  140.1977  156.6571 H   0  0  0  0  0  0  0  0  0  0  0  0  # atno 8009 bound_to 7997
  154.6474  140.0562  156.9903 H   0  0  0  0  0  0  0  0  0  0  0  0  # atno 8010 bound_to 7997
  139.6580  143.9963  152.2207 H   0  0  0  0  0  0  0  0  0  0  0  0  # atno 10167 bound_to 10162
  156.7172  130.5140  149.5877 H   0  0  0  0  0  0  0  0  0  0  0  0  # atno 10718 bound_to 10713
  154.2939  135.6248  153.5396 H   0  0  0  0  0  0  0  0  0  0  0  0  # atno 10763 bound_to 10752
  152.9849  135.5662  154.5360 H   0  0  0  0  0  0  0  0  0  0  0  0  # atno 10764 bound_to 10752
  154.4976  135.2870  155.1422 H   0  0  0  0  0  0  0  0  0  0  0  0  # atno 10765 bound_to 10752
  140.9157  133.7431  156.0731 H   0  0  0  0  0  0  0  0  0  0  0  0  # atno 11005 bound_to 11000
  144.9300  139.4309  143.6499 LP  0  0  0  0  0  0  0  0  0  0  0  0  # atno 17320 bound_to 7965
  146.3234  139.8206  142.8927 LP  0  0  0  0  0  0  0  0  0  0  0  0  # atno 17321 bound_to 7965
  139.9695  144.6503  150.8003 LP  0  0  0  0  0  0  0  0  0  0  0  0  # atno 17342 bound_to 10162
  140.7568  143.3073  151.2931 LP  0  0  0  0  0  0  0  0  0  0  0  0  # atno 17343 bound_to 10162
  156.1620  130.6380  151.0730 LP  0  0  0  0  0  0  0  0  0  0  0  0  # atno 17370 bound_to 10713
  157.6912  131.0809  150.7100 LP  0  0  0  0  0  0  0  0  0  0  0  0  # atno 17371 bound_to 10713
  140.8053  134.3462  157.5428 LP  0  0  0  0  0  0  0  0  0  0  0  0  # atno 17394 bound_to 11000
  139.8765  134.9222  156.3294 LP  0  0  0  0  0  0  0  0  0  0  0  0  # atno 17395 bound_to 11000

$$$$
