AV-unprocessed.smi:844|AV-procd|sdf|3923|dock2
  -GOLD-   22720 1383D 1   1.00000     0.00000
 Structure written by MMmdl.
 32 34  0  0  0  0  0  0  0  0  1 V2000
  153.8611  139.5985  158.5820 O   0  0  0  0  0  0  0  0  0  0  0  0
  153.9523  139.9239  159.9543 C   0  0  2  0  0  0  0  0  0  0  0  0
  153.0803  138.9268  160.7420 C   0  0  0  0  0  0  0  0  0  0  0  0
  153.6998  137.6179  160.8421 N   0  0  0  0  0  0  0  0  0  0  0  0
  154.2624  136.9060  159.8464 C   0  0  0  0  0  0  0  0  0  0  0  0
  154.7642  135.7145  160.1579 N   0  0  0  0  0  0  0  0  0  0  0  0
  154.4994  135.6460  161.5150 C   0  0  0  0  0  0  0  0  0  0  0  0
  154.7795  134.6278  162.4545 C   0  0  0  0  0  0  0  0  0  0  0  0
  154.4087  134.7817  163.8067 C   0  0  0  0  0  0  0  0  0  0  0  0
  153.7535  135.9529  164.2400 C   0  0  0  0  0  0  0  0  0  0  0  0
  153.4638  136.9811  163.3225 C   0  0  0  0  0  0  0  0  0  0  0  0
  153.8357  136.8234  161.9746 C   0  0  0  0  0  0  0  0  0  0  0  0
  153.5654  141.3726  160.2317 C   0  0  0  0  0  0  0  0  0  0  0  0
  153.0017  142.1670  159.2083 C   0  0  0  0  0  0  0  0  0  0  0  0
  152.6253  143.4993  159.4659 C   0  0  0  0  0  0  0  0  0  0  0  0
  152.8070  144.0465  160.7500 C   0  0  0  0  0  0  0  0  0  0  0  0
  152.4439  145.3270  160.9982 F   0  0  0  0  0  0  0  0  0  0  0  0
  153.3640  143.2599  161.7761 C   0  0  0  0  0  0  0  0  0  0  0  0
  153.7414  141.9271  161.5206 C   0  0  0  0  0  0  0  0  0  0  0  0
  154.2653  141.1815  162.5235 F   0  0  0  0  0  0  0  0  0  0  0  0
  152.9987  139.8338  158.2752 H   0  0  0  0  0  0  0  0  0  0  0  0
  154.9971  139.7746  160.2287 H   0  0  0  0  0  0  0  0  0  0  0  0
  152.8752  139.2996  161.7467 H   0  0  0  0  0  0  0  0  0  0  0  0
  152.1138  138.8010  160.2520 H   0  0  0  0  0  0  0  0  0  0  0  0
  154.2981  137.2805  158.8337 H   0  0  0  0  0  0  0  0  0  0  0  0
  155.2806  133.7266  162.1337 H   0  0  0  0  0  0  0  0  0  0  0  0
  154.6278  133.9967  164.5156 H   0  0  0  0  0  0  0  0  0  0  0  0
  153.4735  136.0615  165.2777 H   0  0  0  0  0  0  0  0  0  0  0  0
  152.9616  137.8793  163.6499 H   0  0  0  0  0  0  0  0  0  0  0  0
  152.8508  141.7556  158.2209 H   0  0  0  0  0  0  0  0  0  0  0  0
  152.1950  144.1005  158.6783 H   0  0  0  0  0  0  0  0  0  0  0  0
  153.4995  143.6786  162.7625 H   0  0  0  0  0  0  0  0  0  0  0  0
  1  2  1  0  0  0  0
  1 21  1  0  0  0  0
  2  3  1  0  0  0  0
  2 13  1  0  0  0  0
  2 22  1  0  0  0  0
  3  4  1  0  0  0  0
  3 23  1  0  0  0  0
  3 24  1  0  0  0  0
  4 12  1  0  0  0  0
  4  5  1  0  0  0  0
  5  6  2  0  0  0  0
  5 25  1  0  0  0  0
  6  7  1  0  0  0  0
  7 12  2  0  0  0  0
  7  8  1  0  0  0  0
  8  9  2  0  0  0  0
  8 26  1  0  0  0  0
  9 10  1  0  0  0  0
  9 27  1  0  0  0  0
 10 11  2  0  0  0  0
 10 28  1  0  0  0  0
 11 12  1  0  0  0  0
 11 29  1  0  0  0  0
 13 19  1  0  0  0  0
 13 14  2  0  0  0  0
 14 15  1  0  0  0  0
 14 30  1  0  0  0  0
 15 16  2  0  0  0  0
 15 31  1  0  0  0  0
 16 17  1  0  0  0  0
 16 18  1  0  0  0  0
 18 19  2  0  0  0  0
 18 32  1  0  0  0  0
 19 20  1  0  0  0  0
M  END
> <s_m_source_file>
AV-unprocessed.smi

> <i_m_source_file_index>
844

> <i_lp_mmshare_version>
43012

> <i_f3d_flags>
0

> <s_epik_input>
RmMxW2NIXWMoRilbY0hdW2NIXWMxW0NASF0oW09IXSlbQ0gyXW4oW2NIXW4yKWMoYzIzKVtjSF1bY0hdW2NIXVtjSF0z

> <s_epik_cmdline>
J2VwaWtfcHl0aG9uJywgJy1waCcsICc3LjAnLCAnLXRuJywgJzgnLCAnLW1hJywgJzIwMCcsICctbWV0YWxfYmluZGluZycsICctaW1hZScsICc8aW5maWxlLm1hZT4nLCAnLW9tYWUnLCAnPG91dGZpbGUubWFlPic=

> <r_epik_Ionization_Penalty>
0.0696514

> <r_epik_Ionization_Penalty_Charging>
0

> <r_epik_Ionization_Penalty_Neutral>
0.0696514

> <r_epik_State_Penalty>
0.0610247

> <r_epik_Charging_Adjusted_Penalty>
0.0610247

> <i_epik_Tot_Q>
0

> <i_epik_Tot_abs_Q>
0

> <r_epik_Metal_State_Penalty>
6.42746e-05

> <b_epik_Metal_Only>
0

> <s_lp_Force_Field>
OPLS_2005

> <r_lp_Energy>
12.41

> <b_lp_Chiralities_Consistent>
1

> <s_lp_Variant>
AV-unprocessed.smi:844-1

> <Gold.Version>
5.8.1

> <Gold.Id.Protein>
6NUR|6NUR_protein|mol2

> <Gold.PLP.Fitness>
49.0479

> <Gold.PLP.PLP>
-46.7930

> <Gold.PLP.part.hbond>
-1.0000

> <Gold.PLP.part.metal>
0.0000

> <Gold.PLP.part.buried>
-4.7306

> <Gold.PLP.part.nonpolar>
-40.8932

> <Gold.PLP.part.repulsive>
0.0000

> <Gold.PLP.ligand.clash>
0.0000

> <Gold.PLP.ligand.torsion>
0.3839

> <Gold.PLP.Chemscore.Hbond>
1.0000

> <Gold.PLP.Chemscore.CHOScore>
0.0000

> <Gold.PLP.Chemscore.Metal>
0.0000

> <Gold.Chemscore.Hbonds>
donor molecule, donor type, donor heavy atom, donor atom, acceptor molecule, acceptor atom, score
      P1  H  7997  8009       L1     1  0.95

> <Gold.PLP.Chemscore.Internal.Correction>
0.0226

> <Gold.Rescore>
     Score         DG    S(hbond)    S(metal)    S(lipo)     H(rot)  DE(clash)    DE(int)     intcor
     15.63     -17.25       0.82        0.00     121.12       2.00       0.05       1.57       ----

> <Gold.Chemscore.Fitness>
15.6341

> <Gold.Chemscore.DG>
-17.2499

> <Gold.Chemscore.ZeroCoef>
-5.4800

> <Gold.Chemscore.Hbond>
0.8172

> <Gold.Chemscore.Metal>
0.0000

> <Gold.Chemscore.Lipo>
121.1172

> <Gold.Chemscore.Internal_Hbond>
0.0000

> <Gold.Chemscore.DEClash>
0.0491

> <Gold.Chemscore.DEInternal>
1.5667

> <Gold.Chemscore.Rot>
2.0040

> <Gold.Chemscore.Internal.Correction>
   9.000000E+99

> <Gold.Chemscore.Hbonds>
donor molecule, donor type, donor heavy atom, donor atom, acceptor molecule, acceptor atom, score
      P1  H  7997  8009       L1     1  0.22

> <Gold.Chemscore.Hbond.Weighted>
-2.7295

> <Gold.Chemscore.Metal.Weighted>
-0.0000

> <Gold.Chemscore.Lipo.Weighted>
-14.1707

> <Gold.Chemscore.Internal_Hbond.Weighted>
0.0000

> <Gold.Chemscore.DEClash.Weighted>
0.0491

> <Gold.Chemscore.DEInternal.Weighted>
1.5667

> <Gold.Chemscore.Rot.Weighted>
5.1303

> <Gold.Chemscore.Internal.Correction.Weighted>
   9.000000E+99

> <Gold.Protein.RotatedTorsions>
[ 6907 6896 6895 6894 ] final   41.79 input  -60.11 | X-H torsion
[ 7974 7965 7964 7962 ] final  -78.91 input  175.53 | X-H torsion
[ 8008 7997 7996 7995 ] final  142.35 input   59.86 | X-H torsion
[ 10167 10162 10161 10158 ] final   46.83 input  -65.29 | X-H torsion
[ 10718 10713 10712 10709 ] final -117.55 input   66.30 | X-H torsion
[ 10763 10752 10751 10750 ] final  101.62 input  -60.55 | X-H torsion
[ 11005 11000 10999 10996 ] final   43.12 input  -57.11 | X-H torsion

> <Gold.Protein.ActiveResidues>
 VAL166  LYS551  ARG553  GLY616  TRP617  ASP618  TYR619  PRO620  LYS621  CYS622 
 ASP623  PHE694  ASN695  SER759  ASP760  ASP761  ALA762  ILE779  LEU786  VAL792 
 PHE793  MET794  SER795  GLU796  ALA797  LYS798  CYS799  TRP800  GLU811  SER814 

> <Gold.Protein.RotatedAtoms>
  152.1998  134.8598  160.0508 H   0  0  0  0  0  0  0  0  0  0  0  0  # atno 6907 bound_to 6896
  151.9456  133.3645  159.3989 H   0  0  0  0  0  0  0  0  0  0  0  0  # atno 6908 bound_to 6896
  150.6952  134.4318  159.5296 H   0  0  0  0  0  0  0  0  0  0  0  0  # atno 6909 bound_to 6896
  145.5803  140.9450  143.1348 H   0  0  0  0  0  0  0  0  0  0  0  0  # atno 7974 bound_to 7965
  156.2951  140.2291  156.4714 H   0  0  0  0  0  0  0  0  0  0  0  0  # atno 8008 bound_to 7997
  154.7932  140.0453  157.1238 H   0  0  0  0  0  0  0  0  0  0  0  0  # atno 8009 bound_to 7997
  154.9620  140.3055  155.5030 H   0  0  0  0  0  0  0  0  0  0  0  0  # atno 8010 bound_to 7997
  140.3098  144.2833  150.6202 H   0  0  0  0  0  0  0  0  0  0  0  0  # atno 10167 bound_to 10162
  156.1042  130.6197  150.9178 H   0  0  0  0  0  0  0  0  0  0  0  0  # atno 10718 bound_to 10713
  153.3291  135.4038  155.1480 H   0  0  0  0  0  0  0  0  0  0  0  0  # atno 10763 bound_to 10752
  154.8619  135.3606  154.5495 H   0  0  0  0  0  0  0  0  0  0  0  0  # atno 10764 bound_to 10752
  153.5932  135.7073  153.5473 H   0  0  0  0  0  0  0  0  0  0  0  0  # atno 10765 bound_to 10752
  140.1674  134.4264  155.8278 H   0  0  0  0  0  0  0  0  0  0  0  0  # atno 11005 bound_to 11000
  144.7397  139.7484  143.7315 LP  0  0  0  0  0  0  0  0  0  0  0  0  # atno 17320 bound_to 7965
  146.1721  139.4876  142.9921 LP  0  0  0  0  0  0  0  0  0  0  0  0  # atno 17321 bound_to 7965
  140.5578  143.2196  151.7818 LP  0  0  0  0  0  0  0  0  0  0  0  0  # atno 17342 bound_to 10162
  139.4896  144.4390  151.9786 LP  0  0  0  0  0  0  0  0  0  0  0  0  # atno 17343 bound_to 10162
  157.6216  131.0929  150.8611 LP  0  0  0  0  0  0  0  0  0  0  0  0  # atno 17370 bound_to 10713
  156.8733  130.5153  149.5295 LP  0  0  0  0  0  0  0  0  0  0  0  0  # atno 17371 bound_to 10713
  141.2215  133.6941  156.7703 LP  0  0  0  0  0  0  0  0  0  0  0  0  # atno 17394 bound_to 11000
  140.2417  134.8608  157.3580 LP  0  0  0  0  0  0  0  0  0  0  0  0  # atno 17395 bound_to 11000

$$$$
