AV-unprocessed.smi:2124|AV-procd|sdf|8670|dock10
  -GOLD-   2272011423D 1   1.00000     0.00000
 Structure written by MMmdl.
 46 48  0  0  0  0  0  0  0  0  2 V2000
  151.5283  130.9865  158.9113 C   0  0  0  0  0  0  0  0  0  0  0  0
  150.9808  131.6163  157.6484 C   0  0  0  0  0  0  0  0  0  0  0  0
  150.5555  130.8612  156.7084 N   0  0  0  0  0  0  0  0  0  0  0  0
  150.0513  131.4391  155.5308 C   0  0  0  0  0  0  0  0  0  0  0  0
  149.5761  130.4655  154.4665 C   0  0  0  0  0  0  0  0  0  0  0  0
  150.0077  132.7930  155.3729 C   0  0  0  0  0  0  0  0  0  0  0  0
  149.4754  133.4804  154.1164 C   0  0  0  0  0  0  0  0  0  0  0  0
  147.9754  133.7848  154.1061 C   0  0  0  0  0  0  0  0  0  0  0  0
  147.2153  133.2152  154.8895 O   0  0  0  0  0  0  0  0  0  0  0  0
  147.5639  134.6911  153.2062 N   0  0  0  0  0  0  0  0  0  0  0  0
  146.1900  135.1590  153.0334 C   0  0  2  0  0  0  0  0  0  0  0  0
  145.6424  135.6246  154.3957 C   0  0  0  0  0  0  0  0  0  0  0  0
  145.3405  134.0297  152.3990 C   0  0  2  0  0  0  0  0  0  0  0  0
  146.0825  133.2418  151.2892 C   0  0  0  0  0  0  0  0  0  0  0  0
  145.1149  133.3113  150.0952 C   0  0  1  0  0  0  0  0  0  0  0  0
  143.8659  132.4617  150.3924 C   0  0  0  0  0  0  0  0  0  0  0  0
  143.1271  133.3062  151.4471 C   0  0  0  0  0  0  0  0  0  0  0  0
  144.0725  134.5069  151.6455 C   0  0  2  0  0  0  0  0  0  0  0  0
  144.5768  134.7295  150.2233 C   0  0  0  0  0  0  0  0  0  0  0  0
  150.4974  133.6280  156.4837 C   0  0  0  0  0  0  0  0  0  0  0  0
  150.4596  134.8551  156.3986 O   0  0  0  0  0  0  0  0  0  0  0  0
  150.9794  132.9920  157.5894 N   0  5  0  0  0  0  0  0  0  0  0  0
  151.2575  129.9316  158.9721 H   0  0  0  0  0  0  0  0  0  0  0  0
  151.1317  131.4901  159.7935 H   0  0  0  0  0  0  0  0  0  0  0  0
  152.6155  131.0636  158.9277 H   0  0  0  0  0  0  0  0  0  0  0  0
  150.2078  130.5314  153.5807 H   0  0  0  0  0  0  0  0  0  0  0  0
  148.5478  130.6816  154.1771 H   0  0  0  0  0  0  0  0  0  0  0  0
  149.6113  129.4374  154.8282 H   0  0  0  0  0  0  0  0  0  0  0  0
  150.0385  134.3974  153.9367 H   0  0  0  0  0  0  0  0  0  0  0  0
  149.6847  132.8567  153.2478 H   0  0  0  0  0  0  0  0  0  0  0  0
  148.2625  135.1076  152.6078 H   0  0  0  0  0  0  0  0  0  0  0  0
  146.1939  136.0121  152.3531 H   0  0  0  0  0  0  0  0  0  0  0  0
  144.6477  136.0592  154.3066 H   0  0  0  0  0  0  0  0  0  0  0  0
  146.2819  136.3904  154.8359 H   0  0  0  0  0  0  0  0  0  0  0  0
  145.5831  134.7973  155.1034 H   0  0  0  0  0  0  0  0  0  0  0  0
  145.0507  133.3431  153.1963 H   0  0  0  0  0  0  0  0  0  0  0  0
  147.0275  133.7175  151.0220 H   0  0  0  0  0  0  0  0  0  0  0  0
  146.3044  132.2161  151.5860 H   0  0  0  0  0  0  0  0  0  0  0  0
  145.5846  133.0809  149.1387 H   0  0  0  0  0  0  0  0  0  0  0  0
  143.2523  132.3421  149.4985 H   0  0  0  0  0  0  0  0  0  0  0  0
  144.1225  131.4673  150.7594 H   0  0  0  0  0  0  0  0  0  0  0  0
  142.1608  133.6355  151.0628 H   0  0  0  0  0  0  0  0  0  0  0  0
  142.9462  132.7569  152.3717 H   0  0  0  0  0  0  0  0  0  0  0  0
  143.5708  135.3658  152.0888 H   0  0  0  0  0  0  0  0  0  0  0  0
  145.3502  135.4955  150.1478 H   0  0  0  0  0  0  0  0  0  0  0  0
  143.7805  134.9554  149.5119 H   0  0  0  0  0  0  0  0  0  0  0  0
  1  2  1  0  0  0  0
  1 23  1  0  0  0  0
  1 24  1  0  0  0  0
  1 25  1  0  0  0  0
  2 22  1  0  0  0  0
  2  3  2  0  0  0  0
  3  4  1  0  0  0  0
  4  5  1  0  0  0  0
  4  6  2  0  0  0  0
  5 26  1  0  0  0  0
  5 27  1  0  0  0  0
  5 28  1  0  0  0  0
  6  7  1  0  0  0  0
  6 20  1  0  0  0  0
  7  8  1  0  0  0  0
  7 29  1  0  0  0  0
  7 30  1  0  0  0  0
  8  9  2  0  0  0  0
  8 10  1  0  0  0  0
 10 11  1  0  0  0  0
 10 31  1  0  0  0  0
 11 12  1  0  0  0  0
 11 13  1  0  0  0  0
 11 32  1  0  0  0  0
 12 33  1  0  0  0  0
 12 34  1  0  0  0  0
 12 35  1  0  0  0  0
 13 18  1  0  0  0  0
 13 14  1  0  0  0  0
 13 36  1  0  0  0  0
 14 15  1  0  0  0  0
 14 37  1  0  0  0  0
 14 38  1  0  0  0  0
 15 19  1  0  0  0  0
 15 16  1  0  0  0  0
 15 39  1  0  0  0  0
 16 17  1  0  0  0  0
 16 40  1  0  0  0  0
 16 41  1  0  0  0  0
 17 18  1  0  0  0  0
 17 42  1  0  0  0  0
 17 43  1  0  0  0  0
 18 19  1  0  0  0  0
 18 44  1  0  0  0  0
 19 45  1  0  0  0  0
 19 46  1  0  0  0  0
 20 21  2  0  0  0  0
 20 22  1  0  0  0  0
M  CHG  1  22  -1
M  END
> <s_m_source_file>
AV-unprocessed.smi

> <i_m_source_file_index>
2124

> <i_lp_mmshare_version>
43012

> <i_f3d_flags>
0

> <s_epik_input>
W0NIM11jMW5jKFtDSDNdKWMoYyg9TylbbkhdMSlbQ0gyXUMoPU8pW05IXVtDQEhdKFtDSDNdKVtDQEhdKFtDSDJdW0NASF0yMylbQ0BIXShbQ0gyXTMpW0NIMl1bQ0gyXTI=

> <s_epik_cmdline>
J2VwaWtfcHl0aG9uJywgJy1waCcsICc3LjAnLCAnLXRuJywgJzgnLCAnLW1hJywgJzIwMCcsICctbWV0YWxfYmluZGluZycsICctaW1hZScsICc8aW5maWxlLm1hZT4nLCAnLW9tYWUnLCAnPG91dGZpbGUubWFlPic=

> <r_lp_tautomer_probability>
0.839158

> <r_epik_Ionization_Penalty>
6.63797

> <r_epik_Ionization_Penalty_Charging>
7.48558e-08

> <r_epik_Ionization_Penalty_Neutral>
6.63797

> <r_epik_State_Penalty>
4.49496

> <r_epik_Charging_Adjusted_Penalty>
4.49496

> <i_epik_Tot_Q>
-1

> <i_epik_Tot_abs_Q>
1

> <r_epik_Metal_State_Penalty>
0.841241

> <b_epik_Metal_Only>
1

> <s_lp_Force_Field>
OPLS_2005

> <r_lp_Energy>
56.157

> <b_lp_Chiralities_Consistent>
1

> <s_lp_Variant>
AV-unprocessed.smi:2124-21

> <Gold.Version>
5.8.1

> <Gold.Id.Protein>
6NUR|6NUR_protein|mol2

> <Gold.PLP.Fitness>
40.6569

> <Gold.PLP.PLP>
-33.8505

> <Gold.PLP.part.hbond>
-1.9341

> <Gold.PLP.part.metal>
0.0000

> <Gold.PLP.part.buried>
-3.5892

> <Gold.PLP.part.nonpolar>
-28.1769

> <Gold.PLP.part.repulsive>
0.0237

> <Gold.PLP.ligand.clash>
0.0000

> <Gold.PLP.ligand.torsion>
1.1073

> <Gold.PLP.Chemscore.Hbond>
3.0000

> <Gold.PLP.Chemscore.CHOScore>
0.0000

> <Gold.PLP.Chemscore.Metal>
0.0000

> <Gold.Chemscore.Hbonds>
donor molecule, donor type, donor heavy atom, donor atom, acceptor molecule, acceptor atom, score
      L1  H    10    31       P1  7948  0.88
      P1  H  6896  6908       L1    22  1.79

> <Gold.PLP.Chemscore.Internal.Correction>
0.0210

> <Gold.Rescore>
     Score         DG    S(hbond)    S(metal)    S(lipo)     H(rot)  DE(clash)    DE(int)     intcor
     13.63     -16.27       1.91        0.00      72.84       1.61       0.00       2.63       ----

> <Gold.Chemscore.Fitness>
13.6328

> <Gold.Chemscore.DG>
-16.2667

> <Gold.Chemscore.ZeroCoef>
-5.4800

> <Gold.Chemscore.Hbond>
1.9080

> <Gold.Chemscore.Metal>
0.0000

> <Gold.Chemscore.Lipo>
72.8445

> <Gold.Chemscore.Internal_Hbond>
0.0000

> <Gold.Chemscore.DEClash>
0.0015

> <Gold.Chemscore.DEInternal>
2.6324

> <Gold.Chemscore.Rot>
1.6051

> <Gold.Chemscore.Internal.Correction>
   9.000000E+99

> <Gold.Chemscore.Hbonds>
donor molecule, donor type, donor heavy atom, donor atom, acceptor molecule, acceptor atom, score
      L1  H    10    31       P1  7948  0.70
      P1  H  6896  6908       L1    22  0.23

> <Gold.Chemscore.Hbond.Weighted>
-6.3729

> <Gold.Chemscore.Metal.Weighted>
-0.0000

> <Gold.Chemscore.Lipo.Weighted>
-8.5228

> <Gold.Chemscore.Internal_Hbond.Weighted>
0.0000

> <Gold.Chemscore.DEClash.Weighted>
0.0015

> <Gold.Chemscore.DEInternal.Weighted>
2.6324

> <Gold.Chemscore.Rot.Weighted>
4.1090

> <Gold.Chemscore.Internal.Correction.Weighted>
   9.000000E+99

> <Gold.Protein.RotatedTorsions>
[ 6907 6896 6895 6894 ] final   73.35 input  -60.11 | X-H torsion
[ 7974 7965 7964 7962 ] final   70.51 input  175.53 | X-H torsion
[ 8008 7997 7996 7995 ] final  -76.61 input   59.86 | X-H torsion
[ 10167 10162 10161 10158 ] final  173.48 input  -65.29 | X-H torsion
[ 10718 10713 10712 10709 ] final   17.37 input   66.30 | X-H torsion
[ 10763 10752 10751 10750 ] final -174.43 input  -60.55 | X-H torsion
[ 11005 11000 10999 10996 ] final   -4.00 input  -57.11 | X-H torsion

> <Gold.Protein.ActiveResidues>
 VAL166  LYS551  ARG553  GLY616  TRP617  ASP618  TYR619  PRO620  LYS621  CYS622 
 ASP623  PHE694  ASN695  SER759  ASP760  ASP761  ALA762  ILE779  LEU786  VAL792 
 PHE793  MET794  SER795  GLU796  ALA797  LYS798  CYS799  TRP800  GLU811  SER814 

> <Gold.Protein.RotatedAtoms>
  152.4918  134.4435  159.9551 H   0  0  0  0  0  0  0  0  0  0  0  0  # atno 6907 bound_to 6896
  151.4421  133.3634  159.2791 H   0  0  0  0  0  0  0  0  0  0  0  0  # atno 6908 bound_to 6896
  150.9080  134.8520  159.7466 H   0  0  0  0  0  0  0  0  0  0  0  0  # atno 6909 bound_to 6896
  145.7772  139.2871  143.1286 H   0  0  0  0  0  0  0  0  0  0  0  0  # atno 7974 bound_to 7965
  154.5521  140.0724  156.8684 H   0  0  0  0  0  0  0  0  0  0  0  0  # atno 8008 bound_to 7997
  155.2973  140.3382  155.4231 H   0  0  0  0  0  0  0  0  0  0  0  0  # atno 8009 bound_to 7997
  156.1970  140.1707  156.7963 H   0  0  0  0  0  0  0  0  0  0  0  0  # atno 8010 bound_to 7997
  139.5110  144.3256  152.0161 H   0  0  0  0  0  0  0  0  0  0  0  0  # atno 10167 bound_to 10162
  157.0811  130.6388  149.5827 H   0  0  0  0  0  0  0  0  0  0  0  0  # atno 10718 bound_to 10713
  154.5963  135.2850  155.0582 H   0  0  0  0  0  0  0  0  0  0  0  0  # atno 10763 bound_to 10752
  154.1864  135.6448  153.5052 H   0  0  0  0  0  0  0  0  0  0  0  0  # atno 10764 bound_to 10752
  153.0140  135.5436  154.6666 H   0  0  0  0  0  0  0  0  0  0  0  0  # atno 10765 bound_to 10752
  140.6755  133.9199  155.8522 H   0  0  0  0  0  0  0  0  0  0  0  0  # atno 11005 bound_to 11000
  146.0110  140.8435  142.9971 LP  0  0  0  0  0  0  0  0  0  0  0  0  # atno 17320 bound_to 7965
  144.6802  140.2490  143.7334 LP  0  0  0  0  0  0  0  0  0  0  0  0  # atno 17321 bound_to 7965
  140.2697  144.3978  150.6156 LP  0  0  0  0  0  0  0  0  0  0  0  0  # atno 17342 bound_to 10162
  140.6097  143.2169  151.6910 LP  0  0  0  0  0  0  0  0  0  0  0  0  # atno 17343 bound_to 10162
  155.9923  130.4981  150.7336 LP  0  0  0  0  0  0  0  0  0  0  0  0  # atno 17370 bound_to 10713
  157.4799  131.0901  151.0548 LP  0  0  0  0  0  0  0  0  0  0  0  0  # atno 17371 bound_to 10713
  141.0359  134.0691  157.3960 LP  0  0  0  0  0  0  0  0  0  0  0  0  # atno 17394 bound_to 11000
  139.8968  135.0147  156.7069 LP  0  0  0  0  0  0  0  0  0  0  0  0  # atno 17395 bound_to 11000

$$$$
