AV-unprocessed.smi:1403|AV-procd|sdf|5701|dock6
  -GOLD-   22720 5333D 1   1.00000     0.00000
 Structure written by MMmdl.
 35 36  0  0  0  0  0  0  0  0  2 V2000
  151.9894  141.0392  158.8043 C   0  0  0  0  0  0  0  0  0  0  0  0
  153.3607  141.3485  159.4212 C   0  0  2  0  0  0  0  0  0  0  0  0
  153.7568  140.2505  160.3002 N   0  0  0  0  0  0  0  0  0  0  0  0
  154.8525  139.4879  160.1670 C   0  0  0  0  0  0  0  0  0  0  0  0
  155.6220  139.5594  159.2092 O   0  0  0  0  0  0  0  0  0  0  0  0
  155.1286  138.5068  161.3091 C   0  0  0  0  0  0  0  0  0  0  0  0
  155.0883  137.1208  160.8191 N   0  0  0  0  0  0  0  0  0  0  0  0
  156.2466  136.3442  161.0017 C   0  0  0  0  0  0  0  0  0  0  0  0
  156.3334  135.0782  160.5530 C   0  0  0  0  0  0  0  0  0  0  0  0
  155.1820  134.5115  159.8626 C   0  0  0  0  0  0  0  0  0  0  0  0
  155.2426  133.3563  159.4464 O   0  0  0  0  0  0  0  0  0  0  0  0
  154.0802  135.3033  159.7110 N   0  5  0  0  0  0  0  0  0  0  0  0
  154.0085  136.5928  160.1672 C   0  0  0  0  0  0  0  0  0  0  0  0
  153.0074  137.2914  160.0089 O   0  0  0  0  0  0  0  0  0  0  0  0
  153.3616  142.6872  160.1922 C   0  0  2  0  0  0  0  0  0  0  0  0
  152.5134  142.7185  161.4705 C   0  0  0  0  0  0  0  0  0  0  0  0
  152.1587  144.1837  161.5738 C   0  0  0  0  0  0  0  0  0  0  0  0
  151.9398  144.5451  160.1094 C   0  0  0  0  0  0  0  0  0  0  0  0
  152.8692  143.7521  159.3771 O   0  0  0  0  0  0  0  0  0  0  0  0
  151.6764  141.8335  158.1261 H   0  0  0  0  0  0  0  0  0  0  0  0
  151.2213  140.9347  159.5713 H   0  0  0  0  0  0  0  0  0  0  0  0
  152.0174  140.1112  158.2321 H   0  0  0  0  0  0  0  0  0  0  0  0
  154.0679  141.4395  158.5951 H   0  0  0  0  0  0  0  0  0  0  0  0
  153.1884  140.1091  161.1226 H   0  0  0  0  0  0  0  0  0  0  0  0
  156.1006  138.7181  161.7580 H   0  0  0  0  0  0  0  0  0  0  0  0
  154.4028  138.6731  162.1067 H   0  0  0  0  0  0  0  0  0  0  0  0
  157.0558  136.8426  161.5154 H   0  0  0  0  0  0  0  0  0  0  0  0
  157.2336  134.4989  160.6961 H   0  0  0  0  0  0  0  0  0  0  0  0
  154.3862  142.9457  160.4634 H   0  0  0  0  0  0  0  0  0  0  0  0
  151.5980  142.1365  161.3664 H   0  0  0  0  0  0  0  0  0  0  0  0
  153.0498  142.3456  162.3433 H   0  0  0  0  0  0  0  0  0  0  0  0
  151.2817  144.3709  162.1944 H   0  0  0  0  0  0  0  0  0  0  0  0
  152.9984  144.7472  161.9822 H   0  0  0  0  0  0  0  0  0  0  0  0
  150.9306  144.2725  159.7991 H   0  0  0  0  0  0  0  0  0  0  0  0
  152.0786  145.6085  159.9142 H   0  0  0  0  0  0  0  0  0  0  0  0
  1  2  1  0  0  0  0
  1 20  1  0  0  0  0
  1 21  1  0  0  0  0
  1 22  1  0  0  0  0
  2  3  1  0  0  0  0
  2 15  1  0  0  0  0
  2 23  1  0  0  0  0
  3  4  1  0  0  0  0
  3 24  1  0  0  0  0
  4  5  2  0  0  0  0
  4  6  1  0  0  0  0
  6  7  1  0  0  0  0
  6 25  1  0  0  0  0
  6 26  1  0  0  0  0
  7 13  1  0  0  0  0
  7  8  1  0  0  0  0
  8  9  2  0  0  0  0
  8 27  1  0  0  0  0
  9 10  1  0  0  0  0
  9 28  1  0  0  0  0
 10 11  2  0  0  0  0
 10 12  1  0  0  0  0
 12 13  1  0  0  0  0
 13 14  2  0  0  0  0
 15 19  1  0  0  0  0
 15 16  1  0  0  0  0
 15 29  1  0  0  0  0
 16 17  1  0  0  0  0
 16 30  1  0  0  0  0
 16 31  1  0  0  0  0
 17 18  1  0  0  0  0
 17 32  1  0  0  0  0
 17 33  1  0  0  0  0
 18 19  1  0  0  0  0
 18 34  1  0  0  0  0
 18 35  1  0  0  0  0
M  CHG  1  12  -1
M  END
> <s_m_source_file>
AV-unprocessed.smi

> <i_m_source_file_index>
1403

> <i_lp_mmshare_version>
43012

> <i_f3d_flags>
0

> <s_epik_input>
TzFbQ0gyXVtDSDJdW0NIMl1bQ0BIXTFbQ0BIXShbQ0gzXSlbTkhdQyg9TylbQ0gyXW4yW2NIXVtjSF1jKD1PKVtuSF1jMj1P

> <s_epik_cmdline>
J2VwaWtfcHl0aG9uJywgJy1waCcsICc3LjAnLCAnLXRuJywgJzgnLCAnLW1hJywgJzIwMCcsICctbWV0YWxfYmluZGluZycsICctaW1hZScsICc8aW5maWxlLm1hZT4nLCAnLW9tYWUnLCAnPG91dGZpbGUubWFlPic=

> <r_lp_tautomer_probability>
0.999537

> <r_epik_Ionization_Penalty>
3.07438

> <r_epik_Ionization_Penalty_Charging>
2.82466e-08

> <r_epik_Ionization_Penalty_Neutral>
3.07438

> <r_epik_State_Penalty>
3.07341

> <r_epik_Charging_Adjusted_Penalty>
3.07341

> <i_epik_Tot_Q>
-1

> <i_epik_Tot_abs_Q>
1

> <r_epik_Metal_State_Penalty>
0.45947

> <b_epik_Metal_Only>
1

> <s_lp_Force_Field>
OPLS_2005

> <r_lp_Energy>
29.4252

> <b_lp_Chiralities_Consistent>
1

> <s_lp_Variant>
AV-unprocessed.smi:1403-5

> <Gold.Version>
5.8.1

> <Gold.Id.Protein>
6NUR|6NUR_protein|mol2

> <Gold.PLP.Fitness>
39.0419

> <Gold.PLP.PLP>
-30.1542

> <Gold.PLP.part.hbond>
-2.0000

> <Gold.PLP.part.metal>
0.0000

> <Gold.PLP.part.buried>
-5.1321

> <Gold.PLP.part.nonpolar>
-22.3808

> <Gold.PLP.part.repulsive>
0.0588

> <Gold.PLP.ligand.clash>
0.0000

> <Gold.PLP.ligand.torsion>
0.0667

> <Gold.PLP.Chemscore.Hbond>
3.0000

> <Gold.PLP.Chemscore.CHOScore>
0.0000

> <Gold.PLP.Chemscore.Metal>
0.0000

> <Gold.Chemscore.Hbonds>
donor molecule, donor type, donor heavy atom, donor atom, acceptor molecule, acceptor atom, score
      P1  H  6896  6908       L1    12  2.00
      P1  H  7997  8009       L1     5  1.00

> <Gold.PLP.Chemscore.Internal.Correction>
0.0210

> <Gold.Rescore>
     Score         DG    S(hbond)    S(metal)    S(lipo)     H(rot)  DE(clash)    DE(int)     intcor
     15.17     -15.38       1.92        0.00      73.34       1.99       0.05       0.16       ----

> <Gold.Chemscore.Fitness>
15.1728

> <Gold.Chemscore.DG>
-15.3831

> <Gold.Chemscore.ZeroCoef>
-5.4800

> <Gold.Chemscore.Hbond>
1.9241

> <Gold.Chemscore.Metal>
0.0000

> <Gold.Chemscore.Lipo>
73.3437

> <Gold.Chemscore.Internal_Hbond>
0.0000

> <Gold.Chemscore.DEClash>
0.0519

> <Gold.Chemscore.DEInternal>
0.1584

> <Gold.Chemscore.Rot>
1.9940

> <Gold.Chemscore.Internal.Correction>
   9.000000E+99

> <Gold.Chemscore.Hbonds>
donor molecule, donor type, donor heavy atom, donor atom, acceptor molecule, acceptor atom, score
      P1  H  6896  6908       L1    12  0.71
      P1  H  7997  8009       L1     5  1.00

> <Gold.Chemscore.Hbond.Weighted>
-6.4266

> <Gold.Chemscore.Metal.Weighted>
-0.0000

> <Gold.Chemscore.Lipo.Weighted>
-8.5812

> <Gold.Chemscore.Internal_Hbond.Weighted>
0.0000

> <Gold.Chemscore.DEClash.Weighted>
0.0519

> <Gold.Chemscore.DEInternal.Weighted>
0.1584

> <Gold.Chemscore.Rot.Weighted>
5.1047

> <Gold.Chemscore.Internal.Correction.Weighted>
   9.000000E+99

> <Gold.Protein.RotatedTorsions>
[ 6907 6896 6895 6894 ] final  -47.20 input  -60.11 | X-H torsion
[ 7974 7965 7964 7962 ] final -134.14 input  175.53 | X-H torsion
[ 8008 7997 7996 7995 ] final   94.28 input   59.86 | X-H torsion
[ 10167 10162 10161 10158 ] final  142.59 input  -65.29 | X-H torsion
[ 10718 10713 10712 10709 ] final -105.11 input   66.30 | X-H torsion
[ 10763 10752 10751 10750 ] final -119.71 input  -60.55 | X-H torsion
[ 11005 11000 10999 10996 ] final   89.42 input  -57.11 | X-H torsion

> <Gold.Protein.ActiveResidues>
 VAL166  LYS551  ARG553  GLY616  TRP617  ASP618  TYR619  PRO620  LYS621  CYS622 
 ASP623  PHE694  ASN695  SER759  ASP760  ASP761  ALA762  ILE779  LEU786  VAL792 
 PHE793  MET794  SER795  GLU796  ALA797  LYS798  CYS799  TRP800  GLU811  SER814 

> <Gold.Protein.RotatedAtoms>
  150.9032  134.8446  159.7374 H   0  0  0  0  0  0  0  0  0  0  0  0  # atno 6907 bound_to 6896
  152.4904  134.4470  159.9572 H   0  0  0  0  0  0  0  0  0  0  0  0  # atno 6908 bound_to 6896
  151.4520  133.3576  159.2832 H   0  0  0  0  0  0  0  0  0  0  0  0  # atno 6909 bound_to 6896
  144.9129  140.6918  143.5013 H   0  0  0  0  0  0  0  0  0  0  0  0  # atno 7974 bound_to 7965
  156.0561  140.3302  155.7407 H   0  0  0  0  0  0  0  0  0  0  0  0  # atno 8008 bound_to 7997
  155.5526  140.0611  157.2864 H   0  0  0  0  0  0  0  0  0  0  0  0  # atno 8009 bound_to 7997
  154.4459  140.1891  156.0690 H   0  0  0  0  0  0  0  0  0  0  0  0  # atno 8010 bound_to 7997
  139.4990  144.6097  151.6300 H   0  0  0  0  0  0  0  0  0  0  0  0  # atno 10167 bound_to 10162
  156.0332  130.5548  150.7493 H   0  0  0  0  0  0  0  0  0  0  0  0  # atno 10718 bound_to 10713
  154.8625  135.4228  154.2343 H   0  0  0  0  0  0  0  0  0  0  0  0  # atno 10763 bound_to 10752
  153.3321  135.6989  153.6944 H   0  0  0  0  0  0  0  0  0  0  0  0  # atno 10764 bound_to 10752
  153.5957  135.3546  155.2900 H   0  0  0  0  0  0  0  0  0  0  0  0  # atno 10765 bound_to 10752
  139.8876  134.8550  156.3139 H   0  0  0  0  0  0  0  0  0  0  0  0  # atno 11005 bound_to 11000
  145.3423  139.1729  143.4479 LP  0  0  0  0  0  0  0  0  0  0  0  0  # atno 17320 bound_to 7965
  146.3168  140.3466  142.8652 LP  0  0  0  0  0  0  0  0  0  0  0  0  # atno 17321 bound_to 7965
  140.5768  144.0015  150.6246 LP  0  0  0  0  0  0  0  0  0  0  0  0  # atno 17342 bound_to 10162
  140.3150  143.3173  152.0841 LP  0  0  0  0  0  0  0  0  0  0  0  0  # atno 17343 bound_to 10162
  157.5041  131.0921  151.0278 LP  0  0  0  0  0  0  0  0  0  0  0  0  # atno 17370 bound_to 10713
  157.0651  130.5841  149.5392 LP  0  0  0  0  0  0  0  0  0  0  0  0  # atno 17371 bound_to 10713
  140.9832  133.7254  156.0703 LP  0  0  0  0  0  0  0  0  0  0  0  0  # atno 17394 bound_to 11000
  140.7722  134.3819  157.5505 LP  0  0  0  0  0  0  0  0  0  0  0  0  # atno 17395 bound_to 11000

$$$$
