AV-unprocessed.smi:2158|AV-procd|sdf|8789|dock5
  -GOLD-   2272011563D 1   1.00000     0.00000
 Structure written by MMmdl.
 30 30  0  0  0  0  0  0  0  0  2 V2000
  152.9607  142.6390  161.7688 C   0  0  0  0  0  0  0  0  0  0  0  0
  152.6161  142.2999  160.3110 C   0  0  0  0  0  0  0  0  0  0  0  0
  152.1261  143.5103  159.4941 C   0  0  2  0  0  0  0  0  0  0  0  0
  150.8909  144.1645  160.1321 C   0  0  0  0  0  0  0  0  0  0  0  0
  151.8230  143.1036  158.1242 N   0  0  0  0  0  0  0  0  0  0  0  0
  151.0117  142.0948  157.7711 C   0  0  0  0  0  0  0  0  0  0  0  0
  150.4507  141.3596  158.5847 O   0  0  0  0  0  0  0  0  0  0  0  0
  150.8332  141.8671  156.2648 C   0  0  0  0  0  0  0  0  0  0  0  0
  150.9892  140.4535  155.8874 N   0  0  0  0  0  0  0  0  0  0  0  0
  150.0188  139.8902  155.0400 C   0  0  0  0  0  0  0  0  0  0  0  0
  150.0859  138.6065  154.6384 C   0  0  0  0  0  0  0  0  0  0  0  0
  151.2024  137.7942  155.1059 C   0  0  0  0  0  0  0  0  0  0  0  0
  151.2770  136.6188  154.7528 O   0  0  0  0  0  0  0  0  0  0  0  0
  152.1205  138.3877  155.9238 N   0  5  0  0  0  0  0  0  0  0  0  0
  152.0412  139.6955  156.3216 C   0  0  0  0  0  0  0  0  0  0  0  0
  152.8829  140.2128  157.0574 O   0  0  0  0  0  0  0  0  0  0  0  0
  153.2573  141.7431  162.3142 H   0  0  0  0  0  0  0  0  0  0  0  0
  152.1037  143.0731  162.2841 H   0  0  0  0  0  0  0  0  0  0  0  0
  153.7843  143.3507  161.8326 H   0  0  0  0  0  0  0  0  0  0  0  0
  153.4883  141.8564  159.8290 H   0  0  0  0  0  0  0  0  0  0  0  0
  151.8441  141.5296  160.3071 H   0  0  0  0  0  0  0  0  0  0  0  0
  152.9313  144.2474  159.4801 H   0  0  0  0  0  0  0  0  0  0  0  0
  151.1035  144.4948  161.1492 H   0  0  0  0  0  0  0  0  0  0  0  0
  150.0519  143.4694  160.1765 H   0  0  0  0  0  0  0  0  0  0  0  0
  150.5700  145.0391  159.5650 H   0  0  0  0  0  0  0  0  0  0  0  0
  152.2413  143.6503  157.3854 H   0  0  0  0  0  0  0  0  0  0  0  0
  149.8584  142.2371  155.9405 H   0  0  0  0  0  0  0  0  0  0  0  0
  151.5624  142.4851  155.7401 H   0  0  0  0  0  0  0  0  0  0  0  0
  149.2296  140.5611  154.7341 H   0  0  0  0  0  0  0  0  0  0  0  0
  149.3346  138.1896  153.9842 H   0  0  0  0  0  0  0  0  0  0  0  0
  1  2  1  0  0  0  0
  1 17  1  0  0  0  0
  1 18  1  0  0  0  0
  1 19  1  0  0  0  0
  2  3  1  0  0  0  0
  2 20  1  0  0  0  0
  2 21  1  0  0  0  0
  3  4  1  0  0  0  0
  3  5  1  0  0  0  0
  3 22  1  0  0  0  0
  4 23  1  0  0  0  0
  4 24  1  0  0  0  0
  4 25  1  0  0  0  0
  5  6  1  0  0  0  0
  5 26  1  0  0  0  0
  6  7  2  0  0  0  0
  6  8  1  0  0  0  0
  8  9  1  0  0  0  0
  8 27  1  0  0  0  0
  8 28  1  0  0  0  0
  9 15  1  0  0  0  0
  9 10  1  0  0  0  0
 10 11  2  0  0  0  0
 10 29  1  0  0  0  0
 11 12  1  0  0  0  0
 11 30  1  0  0  0  0
 12 13  2  0  0  0  0
 12 14  1  0  0  0  0
 14 15  1  0  0  0  0
 15 16  2  0  0  0  0
M  CHG  1  14  -1
M  END
> <s_m_source_file>
AV-unprocessed.smi

> <i_m_source_file_index>
2158

> <i_lp_mmshare_version>
43012

> <i_f3d_flags>
0

> <s_epik_input>
W0NIM11bQ0gyXVtDQEhdKFtDSDNdKVtOSF1DKD1PKVtDSDJdbjFbY0hdW2NIXWMoPU8pW25IXWMxPU8=

> <s_epik_cmdline>
J2VwaWtfcHl0aG9uJywgJy1waCcsICc3LjAnLCAnLXRuJywgJzgnLCAnLW1hJywgJzIwMCcsICctbWV0YWxfYmluZGluZycsICctaW1hZScsICc8aW5maWxlLm1hZT4nLCAnLW9tYWUnLCAnPG91dGZpbGUubWFlPic=

> <r_lp_tautomer_probability>
0.999537

> <r_epik_Ionization_Penalty>
3.08395

> <r_epik_Ionization_Penalty_Charging>
2.76809e-08

> <r_epik_Ionization_Penalty_Neutral>
3.08395

> <r_epik_State_Penalty>
3.08299

> <r_epik_Charging_Adjusted_Penalty>
3.08299

> <i_epik_Tot_Q>
-1

> <i_epik_Tot_abs_Q>
1

> <r_epik_Metal_State_Penalty>
0.460296

> <b_epik_Metal_Only>
1

> <s_lp_Force_Field>
OPLS_2005

> <r_lp_Energy>
12.2606

> <b_lp_Chiralities_Consistent>
1

> <s_lp_Variant>
AV-unprocessed.smi:2158-3

> <Gold.Version>
5.8.1

> <Gold.Id.Protein>
6NUR|6NUR_protein|mol2

> <Gold.PLP.Fitness>
38.1454

> <Gold.PLP.PLP>
-32.9076

> <Gold.PLP.part.hbond>
-1.9925

> <Gold.PLP.part.metal>
0.0000

> <Gold.PLP.part.buried>
-1.8188

> <Gold.PLP.part.nonpolar>
-28.4991

> <Gold.PLP.part.repulsive>
0.2044

> <Gold.PLP.ligand.clash>
0.0649

> <Gold.PLP.ligand.torsion>
0.3556

> <Gold.PLP.Chemscore.Hbond>
2.0000

> <Gold.PLP.Chemscore.CHOScore>
0.0000

> <Gold.PLP.Chemscore.Metal>
0.0000

> <Gold.Chemscore.Hbonds>
donor molecule, donor type, donor heavy atom, donor atom, acceptor molecule, acceptor atom, score
      P1  H  7997  8008       L1    16  0.99
      P1  H 10752 10764       L1    13  1.00

> <Gold.PLP.Chemscore.Internal.Correction>
0.0140

> <Gold.Rescore>
     Score         DG    S(hbond)    S(metal)    S(lipo)     H(rot)  DE(clash)    DE(int)     intcor
     11.55     -14.46       1.90        0.00      65.10       1.94       0.07       2.83       ----

> <Gold.Chemscore.Fitness>
11.5510

> <Gold.Chemscore.DG>
-14.4573

> <Gold.Chemscore.ZeroCoef>
-5.4800

> <Gold.Chemscore.Hbond>
1.8981

> <Gold.Chemscore.Metal>
0.0000

> <Gold.Chemscore.Lipo>
65.1017

> <Gold.Chemscore.Internal_Hbond>
0.0000

> <Gold.Chemscore.DEClash>
0.0727

> <Gold.Chemscore.DEInternal>
2.8336

> <Gold.Chemscore.Rot>
1.9449

> <Gold.Chemscore.Internal.Correction>
   9.000000E+99

> <Gold.Chemscore.Hbonds>
donor molecule, donor type, donor heavy atom, donor atom, acceptor molecule, acceptor atom, score
      P1  H  7997  8008       L1    16  0.82
      P1  H 10752 10764       L1    13  0.98

> <Gold.Chemscore.Hbond.Weighted>
-6.3395

> <Gold.Chemscore.Metal.Weighted>
-0.0000

> <Gold.Chemscore.Lipo.Weighted>
-7.6169

> <Gold.Chemscore.Internal_Hbond.Weighted>
0.0000

> <Gold.Chemscore.DEClash.Weighted>
0.0727

> <Gold.Chemscore.DEInternal.Weighted>
2.8336

> <Gold.Chemscore.Rot.Weighted>
4.9791

> <Gold.Chemscore.Internal.Correction.Weighted>
   9.000000E+99

> <Gold.Protein.RotatedTorsions>
[ 6907 6896 6895 6894 ] final  132.17 input  -60.11 | X-H torsion
[ 7974 7965 7964 7962 ] final  -15.42 input  175.53 | X-H torsion
[ 8008 7997 7996 7995 ] final  -53.13 input   59.86 | X-H torsion
[ 10167 10162 10161 10158 ] final  -44.59 input  -65.29 | X-H torsion
[ 10718 10713 10712 10709 ] final -128.01 input   66.30 | X-H torsion
[ 10763 10752 10751 10750 ] final  -74.41 input  -60.55 | X-H torsion
[ 11005 11000 10999 10996 ] final  -68.80 input  -57.11 | X-H torsion

> <Gold.Protein.ActiveResidues>
 VAL166  LYS551  ARG553  GLY616  TRP617  ASP618  TYR619  PRO620  LYS621  CYS622 
 ASP623  PHE694  ASN695  SER759  ASP760  ASP761  ALA762  ILE779  LEU786  VAL792 
 PHE793  MET794  SER795  GLU796  ALA797  LYS798  CYS799  TRP800  GLU811  SER814 

> <Gold.Protein.RotatedAtoms>
  152.3352  133.6003  159.5837 H   0  0  0  0  0  0  0  0  0  0  0  0  # atno 6907 bound_to 6896
  150.7446  133.9807  159.3584 H   0  0  0  0  0  0  0  0  0  0  0  0  # atno 6908 bound_to 6896
  151.7678  135.0795  160.0406 H   0  0  0  0  0  0  0  0  0  0  0  0  # atno 6909 bound_to 6896
  146.2033  140.3490  142.8416 H   0  0  0  0  0  0  0  0  0  0  0  0  # atno 7974 bound_to 7965
  154.4125  140.1207  156.5104 H   0  0  0  0  0  0  0  0  0  0  0  0  # atno 8008 bound_to 7997
  155.6805  140.3496  155.4834 H   0  0  0  0  0  0  0  0  0  0  0  0  # atno 8009 bound_to 7997
  155.9555  140.1113  157.0930 H   0  0  0  0  0  0  0  0  0  0  0  0  # atno 8010 bound_to 7997
  140.6891  143.2922  151.3518 H   0  0  0  0  0  0  0  0  0  0  0  0  # atno 10167 bound_to 10162
  156.1911  130.6796  151.0425 H   0  0  0  0  0  0  0  0  0  0  0  0  # atno 10718 bound_to 10713
  154.4728  135.5865  153.6333 H   0  0  0  0  0  0  0  0  0  0  0  0  # atno 10763 bound_to 10752
  152.9837  135.6071  154.3345 H   0  0  0  0  0  0  0  0  0  0  0  0  # atno 10764 bound_to 10752
  154.3229  135.2843  155.2490 H   0  0  0  0  0  0  0  0  0  0  0  0  # atno 10765 bound_to 10752
  141.1540  133.6749  156.6502 H   0  0  0  0  0  0  0  0  0  0  0  0  # atno 11005 bound_to 11000
  144.8732  140.7301  143.6033 LP  0  0  0  0  0  0  0  0  0  0  0  0  # atno 17320 bound_to 7965
  145.3409  139.1732  143.4486 LP  0  0  0  0  0  0  0  0  0  0  0  0  # atno 17321 bound_to 7965
  139.6276  144.0784  152.2448 LP  0  0  0  0  0  0  0  0  0  0  0  0  # atno 17342 bound_to 10162
  140.0248  144.6125  150.7536 LP  0  0  0  0  0  0  0  0  0  0  0  0  # atno 17343 bound_to 10162
  157.6929  131.0804  150.7054 LP  0  0  0  0  0  0  0  0  0  0  0  0  # atno 17370 bound_to 10713
  156.7110  130.4652  149.5547 LP  0  0  0  0  0  0  0  0  0  0  0  0  # atno 17371 bound_to 10713
  140.3326  134.7916  157.4338 LP  0  0  0  0  0  0  0  0  0  0  0  0  # atno 17394 bound_to 11000
  140.1004  134.5481  155.8358 LP  0  0  0  0  0  0  0  0  0  0  0  0  # atno 17395 bound_to 11000

$$$$
