AV-unprocessed.smi:1207|AV-procd|sdf|5050|dock6
  -GOLD-   22720 4 73D 1   1.00000     0.00000
 Structure written by MMmdl.
 51 53  0  0  0  0  0  0  0  0  1 V2000
  152.6794  143.9919  160.7496 C   0  0  0  0  0  0  0  0  0  0  0  0
  152.0415  143.1065  159.6937 C   0  0  0  0  0  0  0  0  0  0  0  0
  152.7473  141.9741  159.2283 C   0  0  0  0  0  0  0  0  0  0  0  0
  152.1885  141.1247  158.2482 C   0  0  0  0  0  0  0  0  0  0  0  0
  152.6944  139.9785  157.6590 N   0  0  0  0  0  0  0  0  0  0  0  0
  151.7088  139.6466  156.8303 C   0  0  0  0  0  0  0  0  0  0  0  0
  150.6231  140.4433  156.8120 N   0  0  0  0  0  0  0  0  0  0  0  0
  149.4348  140.2775  155.9934 C   0  0  0  0  0  0  0  0  0  0  0  0
  149.5683  140.9521  154.6138 C   0  0  1  0  0  0  0  0  0  0  0  0
  150.2579  140.0717  153.7465 O   0  0  0  0  0  0  0  0  0  0  0  0
  148.1917  141.2882  153.9989 C   0  0  0  0  0  0  0  0  0  0  0  0
  147.1105  141.5017  154.9631 N   0  0  0  0  0  0  0  0  0  0  0  0
  146.4645  140.2303  155.2784 C   0  0  0  0  0  0  0  0  0  0  0  0
  146.1338  142.4874  154.4919 C   0  0  0  0  0  0  0  0  0  0  0  0
  145.5999  143.3636  155.5962 C   0  0  0  0  0  0  0  0  0  0  0  0
  144.7589  144.5072  155.4811 C   0  0  0  0  0  0  0  0  0  0  0  0
  144.1879  145.1229  154.2359 C   0  0  0  0  0  0  0  0  0  0  0  0
  144.4811  145.0373  156.6606 N   0  0  0  0  0  0  0  0  0  0  0  0
  145.1453  144.2451  157.6023 O   0  0  0  0  0  0  0  0  0  0  0  0
  145.8027  143.2562  156.9448 C   0  0  0  0  0  0  0  0  0  0  0  0
  146.5793  142.2981  157.7833 C   0  0  0  0  0  0  0  0  0  0  0  0
  150.8948  141.4426  157.7406 C   0  0  0  0  0  0  0  0  0  0  0  0
  150.1827  142.5661  158.1961 C   0  0  0  0  0  0  0  0  0  0  0  0
  150.7548  143.4035  159.1767 C   0  0  0  0  0  0  0  0  0  0  0  0
  149.9766  144.6131  159.6633 C   0  0  0  0  0  0  0  0  0  0  0  0
  153.6689  143.6288  161.0291 H   0  0  0  0  0  0  0  0  0  0  0  0
  152.0650  144.0154  161.6499 H   0  0  0  0  0  0  0  0  0  0  0  0
  152.7899  145.0109  160.3782 H   0  0  0  0  0  0  0  0  0  0  0  0
  153.7271  141.7470  159.6223 H   0  0  0  0  0  0  0  0  0  0  0  0
  151.7781  138.7725  156.1993 H   0  0  0  0  0  0  0  0  0  0  0  0
  149.2295  139.2117  155.8827 H   0  0  0  0  0  0  0  0  0  0  0  0
  148.5903  140.7015  156.5384 H   0  0  0  0  0  0  0  0  0  0  0  0
  150.1566  141.8640  154.7284 H   0  0  0  0  0  0  0  0  0  0  0  0
  149.8473  140.1055  152.8962 H   0  0  0  0  0  0  0  0  0  0  0  0
  148.2705  142.1374  153.3176 H   0  0  0  0  0  0  0  0  0  0  0  0
  147.9064  140.4446  153.3687 H   0  0  0  0  0  0  0  0  0  0  0  0
  145.7091  140.3502  156.0551 H   0  0  0  0  0  0  0  0  0  0  0  0
  147.1917  139.5069  155.6484 H   0  0  0  0  0  0  0  0  0  0  0  0
  145.9817  139.8047  154.3975 H   0  0  0  0  0  0  0  0  0  0  0  0
  146.5961  143.1288  153.7431 H   0  0  0  0  0  0  0  0  0  0  0  0
  145.3232  141.9755  153.9717 H   0  0  0  0  0  0  0  0  0  0  0  0
  144.9706  145.3140  153.5012 H   0  0  0  0  0  0  0  0  0  0  0  0
  143.6919  146.0720  154.4433 H   0  0  0  0  0  0  0  0  0  0  0  0
  143.4559  144.4589  153.7758 H   0  0  0  0  0  0  0  0  0  0  0  0
  146.7384  141.3569  157.2566 H   0  0  0  0  0  0  0  0  0  0  0  0
  146.0520  142.0780  158.7118 H   0  0  0  0  0  0  0  0  0  0  0  0
  147.5551  142.7120  158.0370 H   0  0  0  0  0  0  0  0  0  0  0  0
  149.2025  142.7788  157.7958 H   0  0  0  0  0  0  0  0  0  0  0  0
  149.0070  144.6870  159.1700 H   0  0  0  0  0  0  0  0  0  0  0  0
  150.5279  145.5307  159.4566 H   0  0  0  0  0  0  0  0  0  0  0  0
  149.8012  144.5479  160.7373 H   0  0  0  0  0  0  0  0  0  0  0  0
  1  2  1  0  0  0  0
  1 26  1  0  0  0  0
  1 27  1  0  0  0  0
  1 28  1  0  0  0  0
  2 24  1  0  0  0  0
  2  3  2  0  0  0  0
  3  4  1  0  0  0  0
  3 29  1  0  0  0  0
  4 22  2  0  0  0  0
  4  5  1  0  0  0  0
  5  6  2  0  0  0  0
  6  7  1  0  0  0  0
  6 30  1  0  0  0  0
  7  8  1  0  0  0  0
  7 22  1  0  0  0  0
  8  9  1  0  0  0  0
  8 31  1  0  0  0  0
  8 32  1  0  0  0  0
  9 10  1  0  0  0  0
  9 11  1  0  0  0  0
  9 33  1  0  0  0  0
 10 34  1  0  0  0  0
 11 12  1  0  0  0  0
 11 35  1  0  0  0  0
 11 36  1  0  0  0  0
 12 13  1  0  0  0  0
 12 14  1  0  0  0  0
 13 37  1  0  0  0  0
 13 38  1  0  0  0  0
 13 39  1  0  0  0  0
 14 15  1  0  0  0  0
 14 40  1  0  0  0  0
 14 41  1  0  0  0  0
 15 20  2  0  0  0  0
 15 16  1  0  0  0  0
 16 17  1  0  0  0  0
 16 18  2  0  0  0  0
 17 42  1  0  0  0  0
 17 43  1  0  0  0  0
 17 44  1  0  0  0  0
 18 19  1  0  0  0  0
 19 20  1  0  0  0  0
 20 21  1  0  0  0  0
 21 45  1  0  0  0  0
 21 46  1  0  0  0  0
 21 47  1  0  0  0  0
 22 23  1  0  0  0  0
 23 24  2  0  0  0  0
 23 48  1  0  0  0  0
 24 25  1  0  0  0  0
 25 49  1  0  0  0  0
 25 50  1  0  0  0  0
 25 51  1  0  0  0  0
M  END
> <s_m_source_file>
AV-unprocessed.smi

> <i_m_source_file_index>
1207

> <i_lp_mmshare_version>
43012

> <i_f3d_flags>
0

> <s_epik_input>
W0NIM11jKFtjSF0xKWMoW0NIM10pW2NIXWMoYzEyKW4oW2NIXW4yKVtDSDJdW0NASF0oW09IXSlbQ0gyXU4oW0NIM10pW0NIMl1jM2MoW0NIM10pbm9jM1tDSDNd

> <s_epik_cmdline>
J2VwaWtfcHl0aG9uJywgJy1waCcsICc3LjAnLCAnLXRuJywgJzgnLCAnLW1hJywgJzIwMCcsICctbWV0YWxfYmluZGluZycsICctaW1hZScsICc8aW5maWxlLm1hZT4nLCAnLW9tYWUnLCAnPG91dGZpbGUubWFlPic=

> <r_epik_Ionization_Penalty>
0.374039

> <r_epik_Ionization_Penalty_Charging>
0

> <r_epik_Ionization_Penalty_Neutral>
0.374039

> <r_epik_State_Penalty>
0.350767

> <r_epik_Charging_Adjusted_Penalty>
0.350767

> <i_epik_Tot_Q>
0

> <i_epik_Tot_abs_Q>
0

> <r_epik_Metal_State_Penalty>
0.343187

> <b_epik_Metal_Only>
0

> <s_lp_Force_Field>
OPLS_2005

> <r_lp_Energy>
17.6596

> <b_lp_Chiralities_Consistent>
1

> <s_lp_Variant>
AV-unprocessed.smi:1207-2

> <Gold.Version>
5.8.1

> <Gold.Id.Protein>
6NUR|6NUR_protein|mol2

> <Gold.PLP.Fitness>
46.6133

> <Gold.PLP.PLP>
-41.8802

> <Gold.PLP.part.hbond>
-2.8696

> <Gold.PLP.part.metal>
0.0000

> <Gold.PLP.part.buried>
-6.8599

> <Gold.PLP.part.nonpolar>
-32.1623

> <Gold.PLP.part.repulsive>
0.3191

> <Gold.PLP.ligand.clash>
0.0000

> <Gold.PLP.ligand.torsion>
1.9681

> <Gold.PLP.Chemscore.Hbond>
2.8553

> <Gold.PLP.Chemscore.CHOScore>
0.0000

> <Gold.PLP.Chemscore.Metal>
0.0000

> <Gold.Chemscore.Hbonds>
donor molecule, donor type, donor heavy atom, donor atom, acceptor molecule, acceptor atom, score
      L1  H    10    34       P1  7957  1.00
      P1  H  7989  7998       L1    10  0.85
      P1  H  7997  8009       L1     5  1.00

> <Gold.PLP.Chemscore.Internal.Correction>
0.1036

> <Gold.Rescore>
     Score         DG    S(hbond)    S(metal)    S(lipo)     H(rot)  DE(clash)    DE(int)     intcor
     16.24     -19.36       2.07        0.00     111.42       2.38       0.04       3.08       ----

> <Gold.Chemscore.Fitness>
16.2370

> <Gold.Chemscore.DG>
-19.3614

> <Gold.Chemscore.ZeroCoef>
-5.4800

> <Gold.Chemscore.Hbond>
2.0741

> <Gold.Chemscore.Metal>
0.0000

> <Gold.Chemscore.Lipo>
111.4153

> <Gold.Chemscore.Internal_Hbond>
0.0000

> <Gold.Chemscore.DEClash>
0.0415

> <Gold.Chemscore.DEInternal>
3.0829

> <Gold.Chemscore.Rot>
2.3756

> <Gold.Chemscore.Internal.Correction>
   9.000000E+99

> <Gold.Chemscore.Hbonds>
donor molecule, donor type, donor heavy atom, donor atom, acceptor molecule, acceptor atom, score
      L1  H    10    34       P1  7957  1.00
      P1  H  7989  7998       L1    10  0.09
      P1  H  7997  8009       L1     5  0.87

> <Gold.Chemscore.Hbond.Weighted>
-6.9274

> <Gold.Chemscore.Metal.Weighted>
-0.0000

> <Gold.Chemscore.Lipo.Weighted>
-13.0356

> <Gold.Chemscore.Internal_Hbond.Weighted>
0.0000

> <Gold.Chemscore.DEClash.Weighted>
0.0415

> <Gold.Chemscore.DEInternal.Weighted>
3.0829

> <Gold.Chemscore.Rot.Weighted>
6.0816

> <Gold.Chemscore.Internal.Correction.Weighted>
   9.000000E+99

> <Gold.Protein.RotatedTorsions>
[ 6907 6896 6895 6894 ] final  -50.51 input  -60.11 | X-H torsion
[ 7974 7965 7964 7962 ] final -158.31 input  175.53 | X-H torsion
[ 8008 7997 7996 7995 ] final  161.59 input   59.86 | X-H torsion
[ 10167 10162 10161 10158 ] final  -16.94 input  -65.29 | X-H torsion
[ 10718 10713 10712 10709 ] final  155.53 input   66.30 | X-H torsion
[ 10763 10752 10751 10750 ] final  -92.09 input  -60.55 | X-H torsion
[ 11005 11000 10999 10996 ] final  -54.03 input  -57.11 | X-H torsion

> <Gold.Protein.ActiveResidues>
 VAL166  LYS551  ARG553  GLY616  TRP617  ASP618  TYR619  PRO620  LYS621  CYS622 
 ASP623  PHE694  ASN695  SER759  ASP760  ASP761  ALA762  ILE779  LEU786  VAL792 
 PHE793  MET794  SER795  GLU796  ALA797  LYS798  CYS799  TRP800  GLU811  SER814 

> <Gold.Protein.RotatedAtoms>
  150.8700  134.8072  159.7147 H   0  0  0  0  0  0  0  0  0  0  0  0  # atno 6907 bound_to 6896
  152.4708  134.4962  159.9720 H   0  0  0  0  0  0  0  0  0  0  0  0  # atno 6908 bound_to 6896
  151.5052  133.3458  159.2911 H   0  0  0  0  0  0  0  0  0  0  0  0  # atno 6909 bound_to 6896
  144.7511  140.3845  143.6047 H   0  0  0  0  0  0  0  0  0  0  0  0  # atno 7974 bound_to 7965
  156.2092  140.1773  156.7732 H   0  0  0  0  0  0  0  0  0  0  0  0  # atno 8008 bound_to 7997
  154.5698  140.0684  156.8977 H   0  0  0  0  0  0  0  0  0  0  0  0  # atno 8009 bound_to 7997
  155.2693  140.3341  155.4269 H   0  0  0  0  0  0  0  0  0  0  0  0  # atno 8010 bound_to 7997
  140.7240  143.5065  150.9803 H   0  0  0  0  0  0  0  0  0  0  0  0  # atno 10167 bound_to 10162
  157.2171  131.0710  151.1934 H   0  0  0  0  0  0  0  0  0  0  0  0  # atno 10718 bound_to 10713
  154.6826  135.5244  153.8284 H   0  0  0  0  0  0  0  0  0  0  0  0  # atno 10763 bound_to 10752
  153.0575  135.6556  154.0550 H   0  0  0  0  0  0  0  0  0  0  0  0  # atno 10764 bound_to 10752
  154.0436  135.2975  155.3331 H   0  0  0  0  0  0  0  0  0  0  0  0  # atno 10765 bound_to 10752
  141.1005  133.6618  156.4260 H   0  0  0  0  0  0  0  0  0  0  0  0  # atno 11005 bound_to 11000
  145.6942  139.1646  143.2630 LP  0  0  0  0  0  0  0  0  0  0  0  0  # atno 17320 bound_to 7965
  146.1462  140.6990  142.9344 LP  0  0  0  0  0  0  0  0  0  0  0  0  # atno 17321 bound_to 7965
  139.8777  143.7112  152.3160 LP  0  0  0  0  0  0  0  0  0  0  0  0  # atno 17342 bound_to 10162
  139.7383  144.7566  151.0693 LP  0  0  0  0  0  0  0  0  0  0  0  0  # atno 17343 bound_to 10162
  157.3613  130.7133  149.6504 LP  0  0  0  0  0  0  0  0  0  0  0  0  # atno 17370 bound_to 10713
  155.9685  130.4224  150.4517 LP  0  0  0  0  0  0  0  0  0  0  0  0  # atno 17371 bound_to 10713
  140.5032  134.6465  157.5256 LP  0  0  0  0  0  0  0  0  0  0  0  0  # atno 17394 bound_to 11000
  139.9856  134.7067  155.9781 LP  0  0  0  0  0  0  0  0  0  0  0  0  # atno 17395 bound_to 11000

$$$$
