AV-unprocessed.smi:15|AV-procd|sdf|84|dock3
  -GOLD-   2262015213D 1   1.00000     0.00000
 Structure written by MMmdl.
 53 56  0  0  0  0  0  0  0  0  1 V2000
  146.3521  136.5946  157.3637 C   0  0  0  0  0  0  0  0  0  0  0  0
  146.9017  137.0012  158.7370 C   0  0  0  0  0  0  0  0  0  0  0  0
  148.2448  136.4772  158.9830 N   0  0  0  0  0  0  0  0  0  0  0  0
  148.4624  135.4911  160.0437 C   0  0  0  0  0  0  0  0  0  0  0  0
  147.6120  135.7523  161.3031 C   0  0  1  0  0  0  0  0  0  0  0  0
  148.0150  134.8978  162.5031 C   0  0  0  0  0  0  0  0  0  0  0  0
  147.5685  135.7235  163.7013 C   0  0  0  0  0  0  0  0  0  0  0  0
  147.2881  137.1100  163.1161 C   0  0  0  0  0  0  0  0  0  0  0  0
  147.8260  137.0635  161.8039 O   0  0  0  0  0  0  0  0  0  0  0  0
  149.2805  137.3331  158.8113 C   0  0  0  0  0  0  0  0  0  0  0  0
  150.5103  136.9125  159.2020 N   0  0  0  0  0  0  0  0  0  0  0  0
  151.5627  137.7294  159.1023 C   0  0  0  0  0  0  0  0  0  0  0  0
  151.6030  138.9891  158.6644 N   0  0  0  0  0  0  0  0  0  0  0  0
  150.3666  139.4207  158.2831 C   0  0  0  0  0  0  0  0  0  0  0  0
  149.1628  138.6619  158.3094 C   0  0  0  0  0  0  0  0  0  0  0  0
  148.1059  139.4406  157.8510 N   0  0  0  0  0  0  0  0  0  0  0  0
  148.6538  140.5904  157.5696 C   0  0  0  0  0  0  0  0  0  0  0  0
  150.0038  140.6749  157.8241 N   0  0  0  0  0  0  0  0  0  0  0  0
  150.8575  141.8363  157.6321 C   0  0  0  0  0  0  0  0  0  0  0  0
  151.4703  142.4161  158.9343 C   0  0  1  0  0  0  0  0  0  0  0  0
  150.3782  142.8826  159.7083 O   0  0  0  0  0  0  0  0  0  0  0  0
  152.2670  141.4241  159.7704 C   0  0  0  0  0  0  0  0  0  0  0  0
  153.0982  142.3348  160.6683 C   0  0  0  0  0  0  0  0  0  0  0  0
  153.3680  143.4945  159.8889 O   0  0  0  0  0  0  0  0  0  0  0  0
  152.5132  143.5412  158.7475 C   0  0  2  0  0  0  0  0  0  0  0  0
  151.9616  144.9575  158.5239 C   0  0  0  0  0  0  0  0  0  0  0  0
  145.3840  137.0624  157.1853 H   0  0  0  0  0  0  0  0  0  0  0  0
  146.2113  135.5170  157.2855 H   0  0  0  0  0  0  0  0  0  0  0  0
  147.0234  136.9075  156.5635 H   0  0  0  0  0  0  0  0  0  0  0  0
  146.9202  138.0908  158.7889 H   0  0  0  0  0  0  0  0  0  0  0  0
  146.2231  136.6627  159.5198 H   0  0  0  0  0  0  0  0  0  0  0  0
  148.2216  134.5044  159.6502 H   0  0  0  0  0  0  0  0  0  0  0  0
  149.5199  135.4484  160.3085 H   0  0  0  0  0  0  0  0  0  0  0  0
  146.5497  135.6109  161.0980 H   0  0  0  0  0  0  0  0  0  0  0  0
  147.5647  133.9052  162.4807 H   0  0  0  0  0  0  0  0  0  0  0  0
  149.0986  134.7744  162.5300 H   0  0  0  0  0  0  0  0  0  0  0  0
  146.6707  135.3111  164.1625 H   0  0  0  0  0  0  0  0  0  0  0  0
  148.3509  135.7580  164.4601 H   0  0  0  0  0  0  0  0  0  0  0  0
  146.2144  137.2936  163.0564 H   0  0  0  0  0  0  0  0  0  0  0  0
  147.7398  137.9134  163.6984 H   0  0  0  0  0  0  0  0  0  0  0  0
  152.5062  137.3174  159.4281 H   0  0  0  0  0  0  0  0  0  0  0  0
  148.0804  141.4206  157.1831 H   0  0  0  0  0  0  0  0  0  0  0  0
  151.6533  141.5567  156.9403 H   0  0  0  0  0  0  0  0  0  0  0  0
  150.2716  142.6030  157.1232 H   0  0  0  0  0  0  0  0  0  0  0  0
  149.6868  142.2399  159.6646 H   0  0  0  0  0  0  0  0  0  0  0  0
  151.6460  140.7224  160.3284 H   0  0  0  0  0  0  0  0  0  0  0  0
  152.9467  140.8445  159.1469 H   0  0  0  0  0  0  0  0  0  0  0  0
  152.5256  142.6310  161.5480 H   0  0  0  0  0  0  0  0  0  0  0  0
  154.0187  141.8601  161.0084 H   0  0  0  0  0  0  0  0  0  0  0  0
  153.1648  143.2936  157.9107 H   0  0  0  0  0  0  0  0  0  0  0  0
  151.3016  144.9880  157.6569 H   0  0  0  0  0  0  0  0  0  0  0  0
  152.7739  145.6625  158.3466 H   0  0  0  0  0  0  0  0  0  0  0  0
  151.4014  145.3148  159.3881 H   0  0  0  0  0  0  0  0  0  0  0  0
  1  2  1  0  0  0  0
  1 27  1  0  0  0  0
  1 28  1  0  0  0  0
  1 29  1  0  0  0  0
  2  3  1  0  0  0  0
  2 30  1  0  0  0  0
  2 31  1  0  0  0  0
  3  4  1  0  0  0  0
  3 10  1  0  0  0  0
  4  5  1  0  0  0  0
  4 32  1  0  0  0  0
  4 33  1  0  0  0  0
  5  9  1  0  0  0  0
  5  6  1  0  0  0  0
  5 34  1  0  0  0  0
  6  7  1  0  0  0  0
  6 35  1  0  0  0  0
  6 36  1  0  0  0  0
  7  8  1  0  0  0  0
  7 37  1  0  0  0  0
  7 38  1  0  0  0  0
  8  9  1  0  0  0  0
  8 39  1  0  0  0  0
  8 40  1  0  0  0  0
 10 15  1  0  0  0  0
 10 11  2  0  0  0  0
 11 12  1  0  0  0  0
 12 13  2  0  0  0  0
 12 41  1  0  0  0  0
 13 14  1  0  0  0  0
 14 18  1  0  0  0  0
 14 15  2  0  0  0  0
 15 16  1  0  0  0  0
 16 17  2  0  0  0  0
 17 18  1  0  0  0  0
 17 42  1  0  0  0  0
 18 19  1  0  0  0  0
 19 20  1  0  0  0  0
 19 43  1  0  0  0  0
 19 44  1  0  0  0  0
 20 25  1  0  0  0  0
 20 21  1  0  0  0  0
 20 22  1  0  0  0  0
 21 45  1  0  0  0  0
 22 23  1  0  0  0  0
 22 46  1  0  0  0  0
 22 47  1  0  0  0  0
 23 24  1  0  0  0  0
 23 48  1  0  0  0  0
 23 49  1  0  0  0  0
 24 25  1  0  0  0  0
 25 26  1  0  0  0  0
 25 50  1  0  0  0  0
 26 51  1  0  0  0  0
 26 52  1  0  0  0  0
 26 53  1  0  0  0  0
M  END
> <s_m_source_file>
AV-unprocessed.smi

> <i_m_source_file_index>
15

> <i_lp_mmshare_version>
43012

> <i_f3d_flags>
0

> <s_epik_input>
TzFbQ0gyXVtDSDJdW0NIMl1bQ0BIXTFbQ0gyXU4oW0NIMl1bQ0gzXSljKG5bY0hdbjIpYyhjMjMpbltjSF1uM1tDSDJdW0NAQF00KFtPSF0pW0NIMl1bQ0gyXU9bQ0BIXTRbQ0gzXQ==

> <s_epik_cmdline>
J2VwaWtfcHl0aG9uJywgJy1waCcsICc3LjAnLCAnLXRuJywgJzgnLCAnLW1hJywgJzIwMCcsICctbWV0YWxfYmluZGluZycsICctaW1hZScsICc8aW5maWxlLm1hZT4nLCAnLW9tYWUnLCAnPG91dGZpbGUubWFlPic=

> <r_lp_tautomer_probability>
1

> <r_epik_Ionization_Penalty>
0.00360814

> <r_epik_Ionization_Penalty_Charging>
0

> <r_epik_Ionization_Penalty_Neutral>
0.00360814

> <r_epik_State_Penalty>
0.00237482

> <r_epik_Charging_Adjusted_Penalty>
0.00237482

> <i_epik_Tot_Q>
0

> <i_epik_Tot_abs_Q>
0

> <r_epik_Metal_State_Penalty>
-0

> <b_epik_Metal_Only>
0

> <s_lp_Force_Field>
OPLS_2005

> <r_lp_Energy>
47.1955

> <b_lp_Chiralities_Consistent>
1

> <s_lp_Variant>
AV-unprocessed.smi:15-6

> <Gold.Version>
5.8.1

> <Gold.Id.Protein>
6NUR|6NUR_protein|mol2

> <Gold.PLP.Fitness>
53.5242

> <Gold.PLP.PLP>
-45.7609

> <Gold.PLP.part.hbond>
-4.0000

> <Gold.PLP.part.metal>
0.0000

> <Gold.PLP.part.buried>
-5.3938

> <Gold.PLP.part.nonpolar>
-36.3821

> <Gold.PLP.part.repulsive>
0.0000

> <Gold.PLP.ligand.clash>
0.0000

> <Gold.PLP.ligand.torsion>
0.6111

> <Gold.PLP.Chemscore.Hbond>
2.6344

> <Gold.PLP.Chemscore.CHOScore>
0.0000

> <Gold.PLP.Chemscore.Metal>
0.0000

> <Gold.Chemscore.Hbonds>
donor molecule, donor type, donor heavy atom, donor atom, acceptor molecule, acceptor atom, score
      P1  H  6896  6908       L1    11  0.99
      P1  H  6931  6943       L1     9  1.00
      P1  H  6934  6947       L1     9  0.34

> <Gold.PLP.Chemscore.Internal.Correction>
1.0824

> <Gold.Rescore>
     Score         DG    S(hbond)    S(metal)    S(lipo)     H(rot)  DE(clash)    DE(int)     intcor
     12.83     -17.96       1.64        0.00     113.27       2.44       1.81       3.32       ----

> <Gold.Chemscore.Fitness>
12.8304

> <Gold.Chemscore.DG>
-17.9561

> <Gold.Chemscore.ZeroCoef>
-5.4800

> <Gold.Chemscore.Hbond>
1.6401

> <Gold.Chemscore.Metal>
0.0000

> <Gold.Chemscore.Lipo>
113.2692

> <Gold.Chemscore.Internal_Hbond>
0.0000

> <Gold.Chemscore.DEClash>
1.8053

> <Gold.Chemscore.DEInternal>
3.3205

> <Gold.Chemscore.Rot>
2.4431

> <Gold.Chemscore.Internal.Correction>
   9.000000E+99

> <Gold.Chemscore.Hbonds>
donor molecule, donor type, donor heavy atom, donor atom, acceptor molecule, acceptor atom, score
      P1  H  6896  6908       L1    11  0.72
      P1  H  6931  6943       L1     9  0.25
      P1  H  6934  6947       L1     9  0.11

> <Gold.Chemscore.Hbond.Weighted>
-5.4781

> <Gold.Chemscore.Metal.Weighted>
-0.0000

> <Gold.Chemscore.Lipo.Weighted>
-13.2525

> <Gold.Chemscore.Internal_Hbond.Weighted>
0.0000

> <Gold.Chemscore.DEClash.Weighted>
1.8053

> <Gold.Chemscore.DEInternal.Weighted>
3.3205

> <Gold.Chemscore.Rot.Weighted>
6.2544

> <Gold.Chemscore.Internal.Correction.Weighted>
   9.000000E+99

> <Gold.Protein.RotatedTorsions>
[ 6907 6896 6895 6894 ] final -151.67 input  -60.11 | X-H torsion
[ 7974 7965 7964 7962 ] final -107.36 input  175.53 | X-H torsion
[ 8008 7997 7996 7995 ] final -160.74 input   59.86 | X-H torsion
[ 10167 10162 10161 10158 ] final   81.24 input  -65.29 | X-H torsion
[ 10718 10713 10712 10709 ] final  131.24 input   66.30 | X-H torsion
[ 10763 10752 10751 10750 ] final  140.35 input  -60.55 | X-H torsion
[ 11005 11000 10999 10996 ] final  152.58 input  -57.11 | X-H torsion

> <Gold.Protein.ActiveResidues>
 VAL166  LYS551  ARG553  GLY616  TRP617  ASP618  TYR619  PRO620  LYS621  CYS622 
 ASP623  PHE694  ASN695  SER759  ASP760  ASP761  ALA762  ILE779  LEU786  VAL792 
 PHE793  MET794  SER795  GLU796  ALA797  LYS798  CYS799  TRP800  GLU811  SER814 

> <Gold.Protein.RotatedAtoms>
  151.2164  133.4527  159.2599 H   0  0  0  0  0  0  0  0  0  0  0  0  # atno 6907 bound_to 6896
  151.0926  134.9925  159.8420 H   0  0  0  0  0  0  0  0  0  0  0  0  # atno 6908 bound_to 6896
  152.5436  134.2097  159.8798 H   0  0  0  0  0  0  0  0  0  0  0  0  # atno 6909 bound_to 6896
  145.2063  140.9078  143.3340 H   0  0  0  0  0  0  0  0  0  0  0  0  # atno 7974 bound_to 7965
  155.7820  140.0866  157.2054 H   0  0  0  0  0  0  0  0  0  0  0  0  # atno 8008 bound_to 7997
  154.3989  140.1506  156.3120 H   0  0  0  0  0  0  0  0  0  0  0  0  # atno 8009 bound_to 7997
  155.8644  140.3428  155.5781 H   0  0  0  0  0  0  0  0  0  0  0  0  # atno 8010 bound_to 7997
  139.9413  144.6088  150.8249 H   0  0  0  0  0  0  0  0  0  0  0  0  # atno 10167 bound_to 10162
  157.4987  131.1093  150.9458 H   0  0  0  0  0  0  0  0  0  0  0  0  # atno 10718 bound_to 10713
  153.9213  135.3000  155.3447 H   0  0  0  0  0  0  0  0  0  0  0  0  # atno 10763 bound_to 10752
  154.7574  135.4951  153.9403 H   0  0  0  0  0  0  0  0  0  0  0  0  # atno 10764 bound_to 10752
  153.1140  135.6766  153.9553 H   0  0  0  0  0  0  0  0  0  0  0  0  # atno 10765 bound_to 10752
  140.1321  134.8795  157.2217 H   0  0  0  0  0  0  0  0  0  0  0  0  # atno 11005 bound_to 11000
  144.9898  139.3700  143.6220 LP  0  0  0  0  0  0  0  0  0  0  0  0  # atno 17320 bound_to 7965
  146.3407  139.9076  142.8785 LP  0  0  0  0  0  0  0  0  0  0  0  0  # atno 17321 bound_to 7965
  140.7610  143.3164  151.2723 LP  0  0  0  0  0  0  0  0  0  0  0  0  # atno 17342 bound_to 10162
  139.6702  144.0033  152.2748 LP  0  0  0  0  0  0  0  0  0  0  0  0  # atno 17343 bound_to 10162
  157.0136  130.5646  149.5323 LP  0  0  0  0  0  0  0  0  0  0  0  0  # atno 17370 bound_to 10713
  156.0216  130.5310  150.8290 LP  0  0  0  0  0  0  0  0  0  0  0  0  # atno 17371 bound_to 10713
  140.2829  134.3329  155.7338 LP  0  0  0  0  0  0  0  0  0  0  0  0  # atno 17394 bound_to 11000
  141.2172  133.7489  156.9390 LP  0  0  0  0  0  0  0  0  0  0  0  0  # atno 17395 bound_to 11000

$$$$
