AV-unprocessed.smi:2790|AV-procd|sdf|10767|dock9
  -GOLD-   2272015203D 1   1.00000     0.00000
 Structure written by MMmdl.
 47 48  0  0  0  0  0  0  0  0  3 V2000
  147.1499  134.1586  154.2590 C   0  0  0  0  0  0  0  0  0  0  0  0
  148.3392  134.0827  153.3784 N   0  3  0  0  0  0  0  0  0  0  0  0
  148.2143  132.9953  152.3834 C   0  0  0  0  0  0  0  0  0  0  0  0
  149.6185  134.0133  154.1307 C   0  0  0  0  0  0  0  0  0  0  0  0
  149.7296  135.0750  155.2297 C   0  0  0  0  0  0  0  0  0  0  0  0
  149.9999  134.7506  156.3863 O   0  0  0  0  0  0  0  0  0  0  0  0
  149.5066  136.3426  154.8505 N   0  0  0  0  0  0  0  0  0  0  0  0
  149.5560  137.5144  155.7254 C   0  0  0  0  0  0  0  0  0  0  0  0
  149.9449  138.8263  154.9782 C   0  0  0  0  0  0  0  0  0  0  0  0
  148.6721  139.4320  154.3420 C   0  0  0  0  0  0  0  0  0  0  0  0
  147.8877  138.6499  153.4562 C   0  0  0  0  0  0  0  0  0  0  0  0
  146.7254  139.1919  152.8720 C   0  0  0  0  0  0  0  0  0  0  0  0
  146.3625  140.4601  153.1513 N   0  3  0  0  0  0  0  0  0  0  0  0
  147.0748  141.2542  153.9768 C   0  0  0  0  0  0  0  0  0  0  0  0
  148.2468  140.7648  154.5889 C   0  0  0  0  0  0  0  0  0  0  0  0
  150.5338  139.8545  155.9890 C   0  0  0  0  0  0  0  0  0  0  0  0
  151.8999  139.4562  156.5786 C   0  0  0  0  0  0  0  0  0  0  0  0
  152.9308  139.1863  155.4774 C   0  0  0  0  0  0  0  0  0  0  0  0
  152.4113  138.1339  154.4926 C   0  0  0  0  0  0  0  0  0  0  0  0
  151.0480  138.5461  153.9084 C   0  0  0  0  0  0  0  0  0  0  0  0
  147.0499  133.2534  154.8592 H   0  0  0  0  0  0  0  0  0  0  0  0
  146.2419  134.2760  153.6663 H   0  0  0  0  0  0  0  0  0  0  0  0
  147.2108  135.0109  154.9363 H   0  0  0  0  0  0  0  0  0  0  0  0
  148.2070  132.0188  152.8698 H   0  0  0  0  0  0  0  0  0  0  0  0
  149.0448  133.0204  151.6770 H   0  0  0  0  0  0  0  0  0  0  0  0
  147.2923  133.0999  151.8105 H   0  0  0  0  0  0  0  0  0  0  0  0
  149.7519  133.0143  154.5501 H   0  0  0  0  0  0  0  0  0  0  0  0
  150.4533  134.1814  153.4485 H   0  0  0  0  0  0  0  0  0  0  0  0
  149.2766  136.5121  153.8819 H   0  0  0  0  0  0  0  0  0  0  0  0
  148.5606  137.6187  156.1577 H   0  0  0  0  0  0  0  0  0  0  0  0
  150.2086  137.3265  156.5774 H   0  0  0  0  0  0  0  0  0  0  0  0
  148.1673  137.6349  153.2167 H   0  0  0  0  0  0  0  0  0  0  0  0
  146.0806  138.6519  152.1938 H   0  0  0  0  0  0  0  0  0  0  0  0
  146.6887  142.2525  154.1227 H   0  0  0  0  0  0  0  0  0  0  0  0
  148.7920  141.4314  155.2385 H   0  0  0  0  0  0  0  0  0  0  0  0
  150.6493  140.8174  155.4887 H   0  0  0  0  0  0  0  0  0  0  0  0
  149.8438  140.0293  156.8142 H   0  0  0  0  0  0  0  0  0  0  0  0
  152.2628  140.2518  157.2301 H   0  0  0  0  0  0  0  0  0  0  0  0
  151.7960  138.5749  157.2116 H   0  0  0  0  0  0  0  0  0  0  0  0
  153.1463  140.1127  154.9434 H   0  0  0  0  0  0  0  0  0  0  0  0
  153.8719  138.8559  155.9178 H   0  0  0  0  0  0  0  0  0  0  0  0
  153.1316  138.0053  153.6842 H   0  0  0  0  0  0  0  0  0  0  0  0
  152.3411  137.1654  154.9867 H   0  0  0  0  0  0  0  0  0  0  0  0
  150.7223  137.7847  153.1997 H   0  0  0  0  0  0  0  0  0  0  0  0
  151.2188  139.4516  153.3241 H   0  0  0  0  0  0  0  0  0  0  0  0
  148.3683  134.9447  152.8515 H   0  0  0  0  0  0  0  0  0  0  0  0
  145.5163  140.8338  152.7203 H   0  0  0  0  0  0  0  0  0  0  0  0
  1  2  1  0  0  0  0
  1 21  1  0  0  0  0
  1 22  1  0  0  0  0
  1 23  1  0  0  0  0
  2  3  1  0  0  0  0
  2  4  1  0  0  0  0
  2 46  1  0  0  0  0
  3 24  1  0  0  0  0
  3 25  1  0  0  0  0
  3 26  1  0  0  0  0
  4  5  1  0  0  0  0
  4 27  1  0  0  0  0
  4 28  1  0  0  0  0
  5  6  2  0  0  0  0
  5  7  1  0  0  0  0
  7  8  1  0  0  0  0
  7 29  1  0  0  0  0
  8  9  1  0  0  0  0
  8 30  1  0  0  0  0
  8 31  1  0  0  0  0
  9 20  1  0  0  0  0
  9 10  1  0  0  0  0
  9 16  1  0  0  0  0
 10 15  1  0  0  0  0
 10 11  2  0  0  0  0
 11 12  1  0  0  0  0
 11 32  1  0  0  0  0
 12 13  2  0  0  0  0
 12 33  1  0  0  0  0
 13 14  1  0  0  0  0
 13 47  1  0  0  0  0
 14 15  2  0  0  0  0
 14 34  1  0  0  0  0
 15 35  1  0  0  0  0
 16 17  1  0  0  0  0
 16 36  1  0  0  0  0
 16 37  1  0  0  0  0
 17 18  1  0  0  0  0
 17 38  1  0  0  0  0
 17 39  1  0  0  0  0
 18 19  1  0  0  0  0
 18 40  1  0  0  0  0
 18 41  1  0  0  0  0
 19 20  1  0  0  0  0
 19 42  1  0  0  0  0
 19 43  1  0  0  0  0
 20 44  1  0  0  0  0
 20 45  1  0  0  0  0
M  CHG  1   2   1
M  CHG  1  13   1
M  END
> <s_m_source_file>
AV-unprocessed.smi

> <i_m_source_file_index>
2790

> <i_lp_mmshare_version>
43012

> <i_f3d_flags>
0

> <s_epik_input>
W0NIM11OKFtDSDNdKVtDSDJdQyg9TylbTkhdW0NIMl1DMShbQ0gyXVtDSDJdW0NIMl1bQ0gyXVtDSDJdMSljMltjSF1bY0hdbltjSF1bY0hdMg==

> <s_epik_cmdline>
J2VwaWtfcHl0aG9uJywgJy1waCcsICc3LjAnLCAnLXRuJywgJzgnLCAnLW1hJywgJzIwMCcsICctbWV0YWxfYmluZGluZycsICctaW1hZScsICc8aW5maWxlLm1hZT4nLCAnLW9tYWUnLCAnPG91dGZpbGUubWFlPic=

> <r_epik_Ionization_Penalty>
1.49613

> <r_epik_Ionization_Penalty_Charging>
1.4961

> <r_epik_Ionization_Penalty_Neutral>
2.84587e-05

> <r_epik_State_Penalty>
1.54102

> <r_epik_Charging_Adjusted_Penalty>
3.03712

> <i_epik_Tot_Q>
2

> <i_epik_Tot_abs_Q>
2

> <r_epik_Metal_State_Penalty>
1.62888

> <b_epik_Metal_Only>
0

> <s_lp_Force_Field>
OPLS_2005

> <r_lp_Energy>
33.1663

> <b_lp_Chiralities_Consistent>
1

> <s_lp_Variant>
AV-unprocessed.smi:2790-2

> <Gold.Version>
5.8.1

> <Gold.Id.Protein>
6NUR|6NUR_protein|mol2

> <Gold.PLP.Fitness>
43.5974

> <Gold.PLP.PLP>
-30.9988

> <Gold.PLP.part.hbond>
-3.0000

> <Gold.PLP.part.metal>
0.0000

> <Gold.PLP.part.buried>
0.4365

> <Gold.PLP.part.nonpolar>
-29.6557

> <Gold.PLP.part.repulsive>
0.0340

> <Gold.PLP.ligand.clash>
0.0000

> <Gold.PLP.ligand.torsion>
0.7271

> <Gold.PLP.Chemscore.Hbond>
4.6705

> <Gold.PLP.Chemscore.CHOScore>
0.0000

> <Gold.PLP.Chemscore.Metal>
0.0000

> <Gold.Chemscore.Hbonds>
donor molecule, donor type, donor heavy atom, donor atom, acceptor molecule, acceptor atom, score
      L1  H     2    46       P1  7948  2.00
      L1  H     7    29       P1  7948  0.98
      L1  H    13    47       P1 10175  1.76

> <Gold.PLP.Chemscore.Internal.Correction>
0.0413

> <Gold.Rescore>
     Score         DG    S(hbond)    S(metal)    S(lipo)     H(rot)  DE(clash)    DE(int)     intcor
     17.41     -19.64       2.32        0.00      92.87       1.73       1.61       0.62       ----

> <Gold.Chemscore.Fitness>
17.4071

> <Gold.Chemscore.DG>
-19.6415

> <Gold.Chemscore.ZeroCoef>
-5.4800

> <Gold.Chemscore.Hbond>
2.3157

> <Gold.Chemscore.Metal>
0.0000

> <Gold.Chemscore.Lipo>
92.8680

> <Gold.Chemscore.Internal_Hbond>
0.0000

> <Gold.Chemscore.DEClash>
1.6119

> <Gold.Chemscore.DEInternal>
0.6225

> <Gold.Chemscore.Rot>
1.7339

> <Gold.Chemscore.Internal.Correction>
   9.000000E+99

> <Gold.Chemscore.Hbonds>
donor molecule, donor type, donor heavy atom, donor atom, acceptor molecule, acceptor atom, score
      L1  H     2    46       P1  7948  0.70
      L1  H     7    29       P1  7948  0.86
      L1  H    13    47       P1 10175  0.26

> <Gold.Chemscore.Hbond.Weighted>
-7.7346

> <Gold.Chemscore.Metal.Weighted>
-0.0000

> <Gold.Chemscore.Lipo.Weighted>
-10.8656

> <Gold.Chemscore.Internal_Hbond.Weighted>
0.0000

> <Gold.Chemscore.DEClash.Weighted>
1.6119

> <Gold.Chemscore.DEInternal.Weighted>
0.6225

> <Gold.Chemscore.Rot.Weighted>
4.4387

> <Gold.Chemscore.Internal.Correction.Weighted>
   9.000000E+99

> <Gold.Protein.RotatedTorsions>
[ 6907 6896 6895 6894 ] final   -5.19 input  -60.11 | X-H torsion
[ 7974 7965 7964 7962 ] final  -36.22 input  175.53 | X-H torsion
[ 8008 7997 7996 7995 ] final -179.74 input   59.86 | X-H torsion
[ 10167 10162 10161 10158 ] final  123.29 input  -65.29 | X-H torsion
[ 10718 10713 10712 10709 ] final  -38.56 input   66.30 | X-H torsion
[ 10763 10752 10751 10750 ] final  167.96 input  -60.55 | X-H torsion
[ 11005 11000 10999 10996 ] final  136.11 input  -57.11 | X-H torsion

> <Gold.Protein.ActiveResidues>
 VAL166  LYS551  ARG553  GLY616  TRP617  ASP618  TYR619  PRO620  LYS621  CYS622 
 ASP623  PHE694  ASN695  SER759  ASP760  ASP761  ALA762  ILE779  LEU786  VAL792 
 PHE793  MET794  SER795  GLU796  ALA797  LYS798  CYS799  TRP800  GLU811  SER814 

> <Gold.Protein.RotatedAtoms>
  151.4855  135.1054  159.9789 H   0  0  0  0  0  0  0  0  0  0  0  0  # atno 6907 bound_to 6896
  152.4762  133.8140  159.7029 H   0  0  0  0  0  0  0  0  0  0  0  0  # atno 6908 bound_to 6896
  150.8802  133.7321  159.2961 H   0  0  0  0  0  0  0  0  0  0  0  0  # atno 6909 bound_to 6896
  146.0680  140.6252  142.8966 H   0  0  0  0  0  0  0  0  0  0  0  0  # atno 7974 bound_to 7965
  156.0340  140.1288  157.0227 H   0  0  0  0  0  0  0  0  0  0  0  0  # atno 8008 bound_to 7997
  154.4362  140.1043  156.6211 H   0  0  0  0  0  0  0  0  0  0  0  0  # atno 8009 bound_to 7997
  155.5765  140.3467  155.4531 H   0  0  0  0  0  0  0  0  0  0  0  0  # atno 8010 bound_to 7997
  139.5808  144.6985  151.3534 H   0  0  0  0  0  0  0  0  0  0  0  0  # atno 10167 bound_to 10162
  156.3024  130.4242  149.8130 H   0  0  0  0  0  0  0  0  0  0  0  0  # atno 10718 bound_to 10713
  154.3616  135.2753  155.2316 H   0  0  0  0  0  0  0  0  0  0  0  0  # atno 10763 bound_to 10752
  154.4502  135.5932  153.6190 H   0  0  0  0  0  0  0  0  0  0  0  0  # atno 10764 bound_to 10752
  152.9843  135.6040  154.3837 H   0  0  0  0  0  0  0  0  0  0  0  0  # atno 10765 bound_to 10752
  140.0024  134.9473  157.0102 H   0  0  0  0  0  0  0  0  0  0  0  0  # atno 11005 bound_to 11000
  144.7214  140.4386  143.7005 LP  0  0  0  0  0  0  0  0  0  0  0  0  # atno 17320 bound_to 7965
  145.6442  139.1554  143.2898 LP  0  0  0  0  0  0  0  0  0  0  0  0  # atno 17321 bound_to 7965
  140.7086  143.7449  150.7526 LP  0  0  0  0  0  0  0  0  0  0  0  0  # atno 17342 bound_to 10162
  140.0981  143.4814  152.2441 LP  0  0  0  0  0  0  0  0  0  0  0  0  # atno 17343 bound_to 10162
  156.5504  130.8339  151.3297 LP  0  0  0  0  0  0  0  0  0  0  0  0  # atno 17370 bound_to 10713
  157.7371  130.9790  150.2174 LP  0  0  0  0  0  0  0  0  0  0  0  0  # atno 17371 bound_to 10713
  140.4703  134.1394  155.7202 LP  0  0  0  0  0  0  0  0  0  0  0  0  # atno 17394 bound_to 11000
  141.1652  133.8716  157.1735 LP  0  0  0  0  0  0  0  0  0  0  0  0  # atno 17395 bound_to 11000

$$$$
