AV-unprocessed.smi:1|AV-procd|sdf|13|dock4
  -GOLD-   2262015103D 1   1.00000     0.00000
 Structure written by MMmdl.
 57 62  0  0  0  0  0  0  0  0  1 V2000
  154.0116  141.2350  159.7889 O   0  0  0  0  0  0  0  0  0  0  0  0
  152.8530  141.5306  159.4837 C   0  0  0  0  0  0  0  0  0  0  0  0
  151.8047  140.6915  159.1292 N   0  0  0  0  0  0  0  0  0  0  0  0
  152.0471  139.4854  158.7132 C   0  0  0  0  0  0  0  0  0  0  0  0
  153.2368  138.7702  158.5281 N   0  0  0  0  0  0  0  0  0  0  0  0
  153.3397  137.4525  158.0578 C   0  0  0  0  0  0  0  0  0  0  0  0
  152.3271  136.6990  157.7220 N   0  0  0  0  0  0  0  0  0  0  0  0
  151.1172  137.3576  157.8898 C   0  0  0  0  0  0  0  0  0  0  0  0
  150.8907  138.6407  158.3421 C   0  0  0  0  0  0  0  0  0  0  0  0
  149.5300  138.9239  158.3687 N   0  0  0  0  0  0  0  0  0  0  0  0
  148.9894  137.7915  157.9280 C   0  0  0  0  0  0  0  0  0  0  0  0
  149.8615  136.8147  157.6154 N   0  0  0  0  0  0  0  0  0  0  0  0
  149.5004  135.4521  157.1106 C   0  0  2  0  0  0  0  0  0  0  0  0
  149.9265  135.3236  155.7861 O   0  0  0  0  0  0  0  0  0  0  0  0
  148.8169  135.1219  154.9145 C   0  0  1  0  0  0  0  0  0  0  0  0
  149.2092  134.2511  153.7154 C   0  0  0  0  0  0  0  0  0  0  0  0
  148.1371  134.2347  152.7878 O   0  0  0  0  0  0  0  0  0  0  0  0
  147.5690  133.0665  152.4335 C   0  0  0  0  0  0  0  0  0  0  0  0
  147.9448  131.9700  152.8534 O   0  0  0  0  0  0  0  0  0  0  0  0
  146.4377  133.2387  151.4770 C   0  0  0  0  0  0  0  0  0  0  0  0
  145.9763  134.5418  151.1767 C   0  0  0  0  0  0  0  0  0  0  0  0
  144.9069  134.7357  150.2808 C   0  0  0  0  0  0  0  0  0  0  0  0
  144.2857  133.6287  149.6741 C   0  0  0  0  0  0  0  0  0  0  0  0
  144.7353  132.3273  149.9643 C   0  0  0  0  0  0  0  0  0  0  0  0
  145.8048  132.1313  150.8597 C   0  0  0  0  0  0  0  0  0  0  0  0
  147.7394  134.5159  155.8120 C   0  0  1  0  0  0  0  0  0  0  0  0
  147.9376  133.1227  155.9901 O   0  0  0  0  0  0  0  0  0  0  0  0
  147.6934  132.7573  157.6017 S   0  0  0  0  0  0  0  0  0  0  0  0
  146.3548  132.1648  157.7439 O   0  0  0  0  0  0  0  0  0  0  0  0
  148.9081  132.1057  158.1150 O   0  0  0  0  0  0  0  0  0  0  0  0
  147.6404  134.3179  158.1991 O   0  0  0  0  0  0  0  0  0  0  0  0
  147.9838  135.2114  157.1542 C   0  0  1  0  0  0  0  0  0  0  0  0
  152.4706  142.9745  159.5083 C   0  0  0  0  0  0  0  0  0  0  0  0
  152.1967  143.6547  158.3027 C   0  0  0  0  0  0  0  0  0  0  0  0
  151.8425  145.0180  158.3259 C   0  0  0  0  0  0  0  0  0  0  0  0
  151.7635  145.7050  159.5529 C   0  0  0  0  0  0  0  0  0  0  0  0
  152.0396  145.0291  160.7573 C   0  0  0  0  0  0  0  0  0  0  0  0
  152.3935  143.6658  160.7358 C   0  0  0  0  0  0  0  0  0  0  0  0
  154.3643  137.0848  157.9880 H   0  0  0  0  0  0  0  0  0  0  0  0
  147.9208  137.6697  157.8280 H   0  0  0  0  0  0  0  0  0  0  0  0
  150.0658  134.7596  157.7358 H   0  0  0  0  0  0  0  0  0  0  0  0
  148.4653  136.0901  154.5596 H   0  0  0  0  0  0  0  0  0  0  0  0
  150.1178  134.6294  153.2452 H   0  0  0  0  0  0  0  0  0  0  0  0
  149.4076  133.2313  154.0477 H   0  0  0  0  0  0  0  0  0  0  0  0
  146.4370  135.4070  151.6314 H   0  0  0  0  0  0  0  0  0  0  0  0
  144.5628  135.7354  150.0600 H   0  0  0  0  0  0  0  0  0  0  0  0
  143.4652  133.7774  148.9877 H   0  0  0  0  0  0  0  0  0  0  0  0
  144.2588  131.4766  149.4999 H   0  0  0  0  0  0  0  0  0  0  0  0
  146.1238  131.1190  151.0610 H   0  0  0  0  0  0  0  0  0  0  0  0
  146.7324  134.6871  155.4301 H   0  0  0  0  0  0  0  0  0  0  0  0
  147.4349  136.1509  157.2233 H   0  0  0  0  0  0  0  0  0  0  0  0
  152.2580  143.1350  157.3575 H   0  0  0  0  0  0  0  0  0  0  0  0
  151.6339  145.5370  157.4022 H   0  0  0  0  0  0  0  0  0  0  0  0
  151.4933  146.7505  159.5702 H   0  0  0  0  0  0  0  0  0  0  0  0
  151.9816  145.5568  161.6979 H   0  0  0  0  0  0  0  0  0  0  0  0
  152.6067  143.1547  161.6635 H   0  0  0  0  0  0  0  0  0  0  0  0
  154.0976  139.2485  158.7536 H   0  0  0  0  0  0  0  0  0  0  0  0
  1  2  2  0  0  0  0
  2  3  1  0  0  0  0
  2 33  1  0  0  0  0
  3  4  2  0  0  0  0
  4  9  1  0  0  0  0
  4  5  1  0  0  0  0
  5  6  1  0  0  0  0
  5 57  1  0  0  0  0
  6  7  2  0  0  0  0
  6 39  1  0  0  0  0
  7  8  1  0  0  0  0
  8 12  1  0  0  0  0
  8  9  2  0  0  0  0
  9 10  1  0  0  0  0
 10 11  2  0  0  0  0
 11 12  1  0  0  0  0
 11 40  1  0  0  0  0
 12 13  1  0  0  0  0
 13 32  1  0  0  0  0
 13 14  1  0  0  0  0
 13 41  1  0  0  0  0
 14 15  1  0  0  0  0
 15 16  1  0  0  0  0
 15 26  1  0  0  0  0
 15 42  1  0  0  0  0
 16 17  1  0  0  0  0
 16 43  1  0  0  0  0
 16 44  1  0  0  0  0
 17 18  1  0  0  0  0
 18 19  2  0  0  0  0
 18 20  1  0  0  0  0
 20 25  1  0  0  0  0
 20 21  2  0  0  0  0
 21 22  1  0  0  0  0
 21 45  1  0  0  0  0
 22 23  2  0  0  0  0
 22 46  1  0  0  0  0
 23 24  1  0  0  0  0
 23 47  1  0  0  0  0
 24 25  2  0  0  0  0
 24 48  1  0  0  0  0
 25 49  1  0  0  0  0
 26 32  1  0  0  0  0
 26 27  1  0  0  0  0
 26 50  1  0  0  0  0
 27 28  1  0  0  0  0
 28 29  2  0  0  0  0
 28 30  2  0  0  0  0
 28 31  1  0  0  0  0
 31 32  1  0  0  0  0
 32 51  1  0  0  0  0
 33 38  1  0  0  0  0
 33 34  2  0  0  0  0
 34 35  1  0  0  0  0
 34 52  1  0  0  0  0
 35 36  2  0  0  0  0
 35 53  1  0  0  0  0
 36 37  1  0  0  0  0
 36 54  1  0  0  0  0
 37 38  2  0  0  0  0
 37 55  1  0  0  0  0
 38 56  1  0  0  0  0
M  END
> <s_m_source_file>
AV-unprocessed.smi

> <i_m_source_file_index>
1

> <i_lp_mmshare_version>
43012

> <i_f3d_flags>
0

> <s_epik_input>
W2NIXTFbY0hdW2NIXVtjSF1bY0hdYzFDKD1PKVtOSF1jKG5bY0hdbjIpYyhjMjMpbltjSF1uM1tDQEBIXShbQ0BIXShbQ0BIXTQ1KU9TKE81KSg9Tyk9TylPW0NASF00W0NIMl1PQyg9TyljNltjSF1bY0hdW2NIXVtjSF1bY0hdNg==

> <s_epik_cmdline>
J2VwaWtfcHl0aG9uJywgJy1waCcsICc3LjAnLCAnLXRuJywgJzgnLCAnLW1hJywgJzIwMCcsICctbWV0YWxfYmluZGluZycsICctaW1hZScsICc8aW5maWxlLm1hZT4nLCAnLW9tYWUnLCAnPG91dGZpbGUubWFlPic=

> <r_epik_Ionization_Penalty>
0.122545

> <r_epik_Ionization_Penalty_Charging>
0.122545

> <r_epik_Ionization_Penalty_Neutral>
7.8935e-16

> <r_epik_State_Penalty>
2.69178

> <r_epik_Charging_Adjusted_Penalty>
2.81433

> <i_epik_Tot_Q>
0

> <i_epik_Tot_abs_Q>
0

> <r_epik_Metal_State_Penalty>
3.02665

> <b_epik_Metal_Only>
0

> <s_epik_Chemistry_Notes>
This compound has an ester and may undergo hydrolysis at high or low pH. This compound contains an acetal/aminal-like group ( X-CH(R)-Y where X, Y are N, S, or O) that may be acid/base labile, releasing an aldehyde.

> <s_lp_Force_Field>
OPLS_2005

> <r_lp_Energy>
62.4827

> <b_lp_Chiralities_Consistent>
1

> <s_lp_Variant>
AV-unprocessed.smi:1-13

> <Gold.Version>
5.8.1

> <Gold.Id.Protein>
6NUR|6NUR_protein|mol2

> <Gold.PLP.Fitness>
53.8122

> <Gold.PLP.PLP>
-57.6057

> <Gold.PLP.part.hbond>
-1.0000

> <Gold.PLP.part.metal>
0.0000

> <Gold.PLP.part.buried>
-10.4838

> <Gold.PLP.part.nonpolar>
-47.7985

> <Gold.PLP.part.repulsive>
2.0851

> <Gold.PLP.ligand.clash>
0.0000

> <Gold.PLP.ligand.torsion>
1.9683

> <Gold.PLP.Chemscore.Hbond>
0.0024

> <Gold.PLP.Chemscore.CHOScore>
0.0000

> <Gold.PLP.Chemscore.Metal>
0.0000

> <Gold.PLP.Chemscore.Internal.Correction>
0.1359

> <Gold.Rescore>
     Score         DG    S(hbond)    S(metal)    S(lipo)     H(rot)  DE(clash)    DE(int)     intcor
     13.83     -14.93       0.00        0.00     127.47       2.13       0.07       1.04       ----

> <Gold.Chemscore.Fitness>
13.8264

> <Gold.Chemscore.DG>
-14.9323

> <Gold.Chemscore.ZeroCoef>
-5.4800

> <Gold.Chemscore.Hbond>
0.0000

> <Gold.Chemscore.Metal>
0.0000

> <Gold.Chemscore.Lipo>
127.4674

> <Gold.Chemscore.Internal_Hbond>
0.0000

> <Gold.Chemscore.DEClash>
0.0662

> <Gold.Chemscore.DEInternal>
1.0397

> <Gold.Chemscore.Rot>
2.1333

> <Gold.Chemscore.Internal.Correction>
   9.000000E+99

> <Gold.Chemscore.Hbond.Weighted>
-0.0000

> <Gold.Chemscore.Metal.Weighted>
-0.0000

> <Gold.Chemscore.Lipo.Weighted>
-14.9137

> <Gold.Chemscore.Internal_Hbond.Weighted>
0.0000

> <Gold.Chemscore.DEClash.Weighted>
0.0662

> <Gold.Chemscore.DEInternal.Weighted>
1.0397

> <Gold.Chemscore.Rot.Weighted>
5.4614

> <Gold.Chemscore.Internal.Correction.Weighted>
   9.000000E+99

> <Gold.Protein.RotatedTorsions>
[ 6907 6896 6895 6894 ] final   -7.57 input  -60.11 | X-H torsion
[ 7974 7965 7964 7962 ] final -166.53 input  175.53 | X-H torsion
[ 8008 7997 7996 7995 ] final  -60.80 input   59.86 | X-H torsion
[ 10167 10162 10161 10158 ] final -129.08 input  -65.29 | X-H torsion
[ 10718 10713 10712 10709 ] final -133.09 input   66.30 | X-H torsion
[ 10763 10752 10751 10750 ] final  -44.01 input  -60.55 | X-H torsion
[ 11005 11000 10999 10996 ] final -101.69 input  -57.11 | X-H torsion

> <Gold.Protein.ActiveResidues>
 VAL166  LYS551  ARG553  GLY616  TRP617  ASP618  TYR619  PRO620  LYS621  CYS622 
 ASP623  PHE694  ASN695  SER759  ASP760  ASP761  ALA762  ILE779  LEU786  VAL792 
 PHE793  MET794  SER795  GLU796  ALA797  LYS798  CYS799  TRP800  GLU811  SER814 

> <Gold.Protein.RotatedAtoms>
  151.4475  135.1026  159.9687 H   0  0  0  0  0  0  0  0  0  0  0  0  # atno 6907 bound_to 6896
  152.4900  133.8471  159.7193 H   0  0  0  0  0  0  0  0  0  0  0  0  # atno 6908 bound_to 6896
  150.9045  133.7016  159.2897 H   0  0  0  0  0  0  0  0  0  0  0  0  # atno 6909 bound_to 6896
  144.7243  140.2652  143.6259 H   0  0  0  0  0  0  0  0  0  0  0  0  # atno 7974 bound_to 7965
  154.4416  140.1031  156.6331 H   0  0  0  0  0  0  0  0  0  0  0  0  # atno 8008 bound_to 7997
  155.5583  140.3487  155.4466 H   0  0  0  0  0  0  0  0  0  0  0  0  # atno 8009 bound_to 7997
  156.0478  140.1297  157.0073 H   0  0  0  0  0  0  0  0  0  0  0  0  # atno 8010 bound_to 7997
  139.9435  143.6136  152.2496 H   0  0  0  0  0  0  0  0  0  0  0  0  # atno 10167 bound_to 10162
  156.2414  130.7098  151.0960 H   0  0  0  0  0  0  0  0  0  0  0  0  # atno 10718 bound_to 10713
  154.0051  135.6688  153.4761 H   0  0  0  0  0  0  0  0  0  0  0  0  # atno 10763 bound_to 10752
  153.0645  135.5008  154.8166 H   0  0  0  0  0  0  0  0  0  0  0  0  # atno 10764 bound_to 10752
  154.7029  135.3082  154.9277 H   0  0  0  0  0  0  0  0  0  0  0  0  # atno 10765 bound_to 10752
  141.1220  133.8498  157.1264 H   0  0  0  0  0  0  0  0  0  0  0  0  # atno 11005 bound_to 11000
  145.8097  139.1998  143.2000 LP  0  0  0  0  0  0  0  0  0  0  0  0  # atno 17320 bound_to 7965
  146.0607  140.7974  142.9736 LP  0  0  0  0  0  0  0  0  0  0  0  0  # atno 17321 bound_to 7965
  139.6685  144.7661  151.1828 LP  0  0  0  0  0  0  0  0  0  0  0  0  # atno 17342 bound_to 10162
  140.7604  143.5901  150.8805 LP  0  0  0  0  0  0  0  0  0  0  0  0  # atno 17343 bound_to 10162
  157.7177  131.0700  150.6263 LP  0  0  0  0  0  0  0  0  0  0  0  0  # atno 17370 bound_to 10713
  156.6337  130.4439  149.5777 LP  0  0  0  0  0  0  0  0  0  0  0  0  # atno 17371 bound_to 10713
  140.0186  134.9956  157.0544 LP  0  0  0  0  0  0  0  0  0  0  0  0  # atno 17394 bound_to 11000
  140.4478  134.1614  155.7179 LP  0  0  0  0  0  0  0  0  0  0  0  0  # atno 17395 bound_to 11000

$$$$
