AV-unprocessed.smi:751|AV-procd|sdf|3594|dock3
  -GOLD-   22720 0583D 1   1.00000     0.00000
 Structure written by MMmdl.
 32 33  0  0  0  0  0  0  0  0  1 V2000
  154.5628  140.3816  156.7296 N   0  0  0  0  0  0  0  0  0  0  0  0
  153.8044  140.8838  157.4447 C   0  0  0  0  0  0  0  0  0  0  0  0
  152.8490  141.5161  158.3452 C   0  0  0  0  0  0  0  0  0  0  0  0
  153.2561  141.8072  159.6634 C   0  0  0  0  0  0  0  0  0  0  0  0
  152.3472  142.4155  160.5441 C   0  0  0  0  0  0  0  0  0  0  0  0
  151.0565  142.7090  160.0643 C   0  0  0  0  0  0  0  0  0  0  0  0
  150.0057  143.3690  160.9460 C   0  0  0  0  0  0  0  0  0  0  0  0
  149.6844  144.5860  160.5052 F   0  0  0  0  0  0  0  0  0  0  0  0
  148.9017  142.6214  160.9636 F   0  0  0  0  0  0  0  0  0  0  0  0
  150.4692  143.4802  162.1911 F   0  0  0  0  0  0  0  0  0  0  0  0
  150.6717  142.4275  158.8005 N   0  0  0  0  0  0  0  0  0  0  0  0
  151.5296  141.8403  157.9250 C   0  0  0  0  0  0  0  0  0  0  0  0
  151.0711  141.5606  156.6027 N   0  0  0  0  0  0  0  0  0  0  0  0
  150.6582  140.1790  156.3777 C   0  0  0  0  0  0  0  0  0  0  0  0
  149.5361  140.7530  155.5160 C   0  0  0  0  0  0  0  0  0  0  0  0
  148.2910  140.1279  155.7769 O   0  0  0  0  0  0  0  0  0  0  0  0
  147.1859  140.8855  155.3089 C   0  0  0  0  0  0  0  0  0  0  0  0
  146.0753  139.9314  154.8715 C   0  0  0  0  0  0  0  0  0  0  0  0
  145.7271  139.9502  153.5820 N   0  0  0  0  0  0  0  0  0  0  0  0
  145.5481  139.1748  155.6840 O   0  0  0  0  0  0  0  0  0  0  0  0
  149.7423  142.0671  156.2705 C   0  0  0  0  0  0  0  0  0  0  0  0
  154.2547  141.5685  160.0010 H   0  0  0  0  0  0  0  0  0  0  0  0
  152.6410  142.6463  161.5573 H   0  0  0  0  0  0  0  0  0  0  0  0
  151.3889  139.5880  155.8252 H   0  0  0  0  0  0  0  0  0  0  0  0
  150.2972  139.6641  157.2693 H   0  0  0  0  0  0  0  0  0  0  0  0
  149.8010  140.8045  154.4575 H   0  0  0  0  0  0  0  0  0  0  0  0
  146.8014  141.5385  156.0937 H   0  0  0  0  0  0  0  0  0  0  0  0
  147.4883  141.5128  154.4688 H   0  0  0  0  0  0  0  0  0  0  0  0
  145.0018  139.3308  153.2495 H   0  0  0  0  0  0  0  0  0  0  0  0
  146.1940  140.5782  152.9442 H   0  0  0  0  0  0  0  0  0  0  0  0
  149.0674  142.1844  157.1196 H   0  0  0  0  0  0  0  0  0  0  0  0
  149.7581  142.9497  155.6307 H   0  0  0  0  0  0  0  0  0  0  0  0
  1  2  3  0  0  0  0
  2  3  1  0  0  0  0
  3 12  1  0  0  0  0
  3  4  2  0  0  0  0
  4  5  1  0  0  0  0
  4 22  1  0  0  0  0
  5  6  2  0  0  0  0
  5 23  1  0  0  0  0
  6  7  1  0  0  0  0
  6 11  1  0  0  0  0
  7  8  1  0  0  0  0
  7  9  1  0  0  0  0
  7 10  1  0  0  0  0
 11 12  2  0  0  0  0
 12 13  1  0  0  0  0
 13 21  1  0  0  0  0
 13 14  1  0  0  0  0
 14 15  1  0  0  0  0
 14 24  1  0  0  0  0
 14 25  1  0  0  0  0
 15 16  1  0  0  0  0
 15 21  1  0  0  0  0
 15 26  1  0  0  0  0
 16 17  1  0  0  0  0
 17 18  1  0  0  0  0
 17 27  1  0  0  0  0
 17 28  1  0  0  0  0
 18 19  1  0  0  0  0
 18 20  2  0  0  0  0
 19 29  1  0  0  0  0
 19 30  1  0  0  0  0
 21 31  1  0  0  0  0
 21 32  1  0  0  0  0
M  END
> <s_m_source_file>
AV-unprocessed.smi

> <i_m_source_file_index>
751

> <i_lp_mmshare_version>
43012

> <i_f3d_flags>
0

> <s_epik_input>
TiNDYzFbY0hdW2NIXWMoQyhGKShGKUYpbmMxTjJbQ0gyXVtDSF0oW0NIMl0yKU9bQ0gyXUMoPU8pW05IMl0=

> <s_epik_cmdline>
J2VwaWtfcHl0aG9uJywgJy1waCcsICc3LjAnLCAnLXRuJywgJzgnLCAnLW1hJywgJzIwMCcsICctbWV0YWxfYmluZGluZycsICctaW1hZScsICc8aW5maWxlLm1hZT4nLCAnLW9tYWUnLCAnPG91dGZpbGUubWFlPic=

> <r_lp_tautomer_probability>
1

> <r_epik_Ionization_Penalty>
6.47511e-08

> <r_epik_Ionization_Penalty_Charging>
0

> <r_epik_Ionization_Penalty_Neutral>
6.47511e-08

> <r_epik_State_Penalty>
-0

> <r_epik_Charging_Adjusted_Penalty>
0

> <i_epik_Tot_Q>
0

> <i_epik_Tot_abs_Q>
0

> <r_epik_Metal_State_Penalty>
-0

> <b_epik_Metal_Only>
0

> <s_lp_Force_Field>
OPLS_2005

> <r_lp_Energy>
25.0077

> <b_lp_Chiralities_Consistent>
1

> <s_lp_Variant>
AV-unprocessed.smi:751-1

> <Gold.Version>
5.8.1

> <Gold.Id.Protein>
6NUR|6NUR_protein|mol2

> <Gold.PLP.Fitness>
43.9614

> <Gold.PLP.PLP>
-42.7447

> <Gold.PLP.part.hbond>
-1.1535

> <Gold.PLP.part.metal>
0.0000

> <Gold.PLP.part.buried>
-6.9630

> <Gold.PLP.part.nonpolar>
-34.8109

> <Gold.PLP.part.repulsive>
0.2823

> <Gold.PLP.ligand.clash>
1.2541

> <Gold.PLP.ligand.torsion>
0.7199

> <Gold.PLP.Chemscore.Hbond>
1.1700

> <Gold.PLP.Chemscore.CHOScore>
0.0000

> <Gold.PLP.Chemscore.Metal>
0.0000

> <Gold.Chemscore.Hbonds>
donor molecule, donor type, donor heavy atom, donor atom, acceptor molecule, acceptor atom, score
      L1  H    19    29       P1 10175  0.11

> <Gold.PLP.Chemscore.Internal.Correction>
0.4005

> <Gold.Rescore>
     Score         DG    S(hbond)    S(metal)    S(lipo)     H(rot)  DE(clash)    DE(int)     intcor
     10.46     -11.06       1.05        0.00      74.30       2.59       0.00       0.60       ----

> <Gold.Chemscore.Fitness>
10.4594

> <Gold.Chemscore.DG>
-11.0624

> <Gold.Chemscore.ZeroCoef>
-5.4800

> <Gold.Chemscore.Hbond>
1.0528

> <Gold.Chemscore.Metal>
0.0000

> <Gold.Chemscore.Lipo>
74.3024

> <Gold.Chemscore.Internal_Hbond>
0.0000

> <Gold.Chemscore.DEClash>
0.0038

> <Gold.Chemscore.DEInternal>
0.5992

> <Gold.Chemscore.Rot>
2.5888

> <Gold.Chemscore.Internal.Correction>
   9.000000E+99

> <Gold.Chemscore.Hbonds>
donor molecule, donor type, donor heavy atom, donor atom, acceptor molecule, acceptor atom, score
      L1  H    19    29       P1 10175  0.13

> <Gold.Chemscore.Hbond.Weighted>
-3.5162

> <Gold.Chemscore.Metal.Weighted>
-0.0000

> <Gold.Chemscore.Lipo.Weighted>
-8.6934

> <Gold.Chemscore.Internal_Hbond.Weighted>
0.0000

> <Gold.Chemscore.DEClash.Weighted>
0.0038

> <Gold.Chemscore.DEInternal.Weighted>
0.5992

> <Gold.Chemscore.Rot.Weighted>
6.6272

> <Gold.Chemscore.Internal.Correction.Weighted>
   9.000000E+99

> <Gold.Protein.RotatedTorsions>
[ 6907 6896 6895 6894 ] final   47.60 input  -60.11 | X-H torsion
[ 7974 7965 7964 7962 ] final -148.07 input  175.53 | X-H torsion
[ 8008 7997 7996 7995 ] final   25.05 input   59.86 | X-H torsion
[ 10167 10162 10161 10158 ] final   39.38 input  -65.29 | X-H torsion
[ 10718 10713 10712 10709 ] final  155.08 input   66.30 | X-H torsion
[ 10763 10752 10751 10750 ] final  -36.28 input  -60.55 | X-H torsion
[ 11005 11000 10999 10996 ] final  141.29 input  -57.11 | X-H torsion

> <Gold.Protein.ActiveResidues>
 VAL166  LYS551  ARG553  GLY616  TRP617  ASP618  TYR619  PRO620  LYS621  CYS622 
 ASP623  PHE694  ASN695  SER759  ASP760  ASP761  ALA762  ILE779  LEU786  VAL792 
 PHE793  MET794  SER795  GLU796  ALA797  LYS798  CYS799  TRP800  GLU811  SER814 

> <Gold.Protein.RotatedAtoms>
  152.2699  134.7943  160.0415 H   0  0  0  0  0  0  0  0  0  0  0  0  # atno 6907 bound_to 6896
  151.8560  133.3443  159.3696 H   0  0  0  0  0  0  0  0  0  0  0  0  # atno 6908 bound_to 6896
  150.7148  134.5181  159.5684 H   0  0  0  0  0  0  0  0  0  0  0  0  # atno 6909 bound_to 6896
  144.8052  140.5244  143.5679 H   0  0  0  0  0  0  0  0  0  0  0  0  # atno 7974 bound_to 7965
  155.0058  140.3130  155.4849 H   0  0  0  0  0  0  0  0  0  0  0  0  # atno 8008 bound_to 7997
  156.2917  140.2223  156.5111 H   0  0  0  0  0  0  0  0  0  0  0  0  # atno 8009 bound_to 7997
  154.7578  140.0461  157.0936 H   0  0  0  0  0  0  0  0  0  0  0  0  # atno 8010 bound_to 7997
  140.3845  144.1935  150.6130 H   0  0  0  0  0  0  0  0  0  0  0  0  # atno 10167 bound_to 10162
  157.2230  131.0722  151.1900 H   0  0  0  0  0  0  0  0  0  0  0  0  # atno 10718 bound_to 10713
  153.8772  135.6825  153.4769 H   0  0  0  0  0  0  0  0  0  0  0  0  # atno 10763 bound_to 10752
  153.1254  135.4721  154.9261 H   0  0  0  0  0  0  0  0  0  0  0  0  # atno 10764 bound_to 10752
  154.7686  135.3232  154.8187 H   0  0  0  0  0  0  0  0  0  0  0  0  # atno 10765 bound_to 10752
  140.0391  134.9314  157.0808 H   0  0  0  0  0  0  0  0  0  0  0  0  # atno 11005 bound_to 11000
  145.5454  139.1476  143.3423 LP  0  0  0  0  0  0  0  0  0  0  0  0  # atno 17320 bound_to 7965
  146.2342  140.5593  142.8962 LP  0  0  0  0  0  0  0  0  0  0  0  0  # atno 17321 bound_to 7965
  140.4903  143.2349  151.8828 LP  0  0  0  0  0  0  0  0  0  0  0  0  # atno 17342 bound_to 10162
  139.4793  144.5173  151.8851 LP  0  0  0  0  0  0  0  0  0  0  0  0  # atno 17343 bound_to 10162
  157.3556  130.7104  149.6468 LP  0  0  0  0  0  0  0  0  0  0  0  0  # atno 17370 bound_to 10713
  155.9681  130.4240  150.4588 LP  0  0  0  0  0  0  0  0  0  0  0  0  # atno 17371 bound_to 10713
  140.4099  134.1992  155.7163 LP  0  0  0  0  0  0  0  0  0  0  0  0  # atno 17394 bound_to 11000
  141.1873  133.8284  157.1036 LP  0  0  0  0  0  0  0  0  0  0  0  0  # atno 17395 bound_to 11000

$$$$
