AV-unprocessed.smi:1809|AV-procd|sdf|7331|dock9
  -GOLD-   22720 8593D 1   1.00000     0.00000
 Structure written by MMmdl.
 38 40  0  0  0  0  0  0  0  0  2 V2000
  146.3299  138.4520  152.9089 C   0  0  0  0  0  0  0  0  0  0  0  0
  147.4818  139.1278  153.5705 C   0  0  0  0  0  0  0  0  0  0  0  0
  148.4510  138.4564  154.1972 N   0  0  0  0  0  0  0  0  0  0  0  0
  149.4118  139.3028  154.7314 N   0  0  0  0  0  0  0  0  0  0  0  0
  149.1640  140.5983  154.4908 C   0  0  0  0  0  0  0  0  0  0  0  0
  149.9723  141.5790  154.9259 N   0  5  0  0  0  0  0  0  0  0  0  0
  150.2882  141.6630  156.2384 C   0  0  0  0  0  0  0  0  0  0  0  0
  150.7529  140.7601  156.9381 O   0  0  0  0  0  0  0  0  0  0  0  0
  150.0531  142.8674  156.7750 N   0  0  0  0  0  0  0  0  0  0  0  0
  150.2982  143.2278  158.1651 C   0  0  0  0  0  0  0  0  0  0  0  0
  151.6715  143.9093  158.3195 C   0  0  2  0  0  0  0  0  0  0  0  0
  152.7625  142.9464  158.8458 C   0  0  0  0  0  0  0  0  0  0  0  0
  152.5875  142.6984  160.2649 N   0  0  0  0  0  0  0  0  0  0  0  0
  153.5929  141.8891  160.9132 C   0  0  0  0  0  0  0  0  0  0  0  0
  153.3772  142.1461  162.4148 C   0  0  0  0  0  0  0  0  0  0  0  0
  152.6006  143.4803  162.4693 C   0  0  0  0  0  0  0  0  0  0  0  0
  152.5929  143.9295  161.0070 C   0  0  2  0  0  0  0  0  0  0  0  0
  151.4462  144.8429  160.5539 C   0  0  0  0  0  0  0  0  0  0  0  0
  151.5896  145.0794  159.1499 O   0  0  0  0  0  0  0  0  0  0  0  0
  147.6769  140.8723  153.5831 S   0  0  0  0  0  0  0  0  0  0  0  0
  146.6146  138.1266  151.9083 H   0  0  0  0  0  0  0  0  0  0  0  0
  145.4859  139.1372  152.8280 H   0  0  0  0  0  0  0  0  0  0  0  0
  146.0173  137.5819  153.4870 H   0  0  0  0  0  0  0  0  0  0  0  0
  149.6679  143.5822  156.1753 H   0  0  0  0  0  0  0  0  0  0  0  0
  149.4954  143.8737  158.5220 H   0  0  0  0  0  0  0  0  0  0  0  0
  150.2686  142.3235  158.7745 H   0  0  0  0  0  0  0  0  0  0  0  0
  151.9788  144.2489  157.3297 H   0  0  0  0  0  0  0  0  0  0  0  0
  152.7420  142.0066  158.2931 H   0  0  0  0  0  0  0  0  0  0  0  0
  153.7441  143.3892  158.6716 H   0  0  0  0  0  0  0  0  0  0  0  0
  153.4950  140.8361  160.6480 H   0  0  0  0  0  0  0  0  0  0  0  0
  154.5901  142.2214  160.6202 H   0  0  0  0  0  0  0  0  0  0  0  0
  152.7892  141.3467  162.8672 H   0  0  0  0  0  0  0  0  0  0  0  0
  154.3290  142.2040  162.9438 H   0  0  0  0  0  0  0  0  0  0  0  0
  151.5841  143.3090  162.8263 H   0  0  0  0  0  0  0  0  0  0  0  0
  153.0709  144.2156  163.1226 H   0  0  0  0  0  0  0  0  0  0  0  0
  153.5337  144.4506  160.8164 H   0  0  0  0  0  0  0  0  0  0  0  0
  150.4750  144.3957  160.7677 H   0  0  0  0  0  0  0  0  0  0  0  0
  151.4827  145.7955  161.0824 H   0  0  0  0  0  0  0  0  0  0  0  0
  1  2  1  0  0  0  0
  1 21  1  0  0  0  0
  1 22  1  0  0  0  0
  1 23  1  0  0  0  0
  2 20  1  0  0  0  0
  2  3  2  0  0  0  0
  3  4  1  0  0  0  0
  4  5  2  0  0  0  0
  5  6  1  0  0  0  0
  5 20  1  0  0  0  0
  6  7  1  0  0  0  0
  7  8  2  0  0  0  0
  7  9  1  0  0  0  0
  9 10  1  0  0  0  0
  9 24  1  0  0  0  0
 10 11  1  0  0  0  0
 10 25  1  0  0  0  0
 10 26  1  0  0  0  0
 11 19  1  0  0  0  0
 11 12  1  0  0  0  0
 11 27  1  0  0  0  0
 12 13  1  0  0  0  0
 12 28  1  0  0  0  0
 12 29  1  0  0  0  0
 13 17  1  0  0  0  0
 13 14  1  0  0  0  0
 14 15  1  0  0  0  0
 14 30  1  0  0  0  0
 14 31  1  0  0  0  0
 15 16  1  0  0  0  0
 15 32  1  0  0  0  0
 15 33  1  0  0  0  0
 16 17  1  0  0  0  0
 16 34  1  0  0  0  0
 16 35  1  0  0  0  0
 17 18  1  0  0  0  0
 17 36  1  0  0  0  0
 18 19  1  0  0  0  0
 18 37  1  0  0  0  0
 18 38  1  0  0  0  0
M  CHG  1   6  -1
M  END
> <s_m_source_file>
AV-unprocessed.smi

> <i_m_source_file_index>
1809

> <i_lp_mmshare_version>
43012

> <i_f3d_flags>
0

> <s_epik_input>
W0NIM11jMW5uYyhzMSlbTkhdQyg9TylbTkhdW0NIMl1bQ0BIXShbQ0gyXTIpT1tDSDJdW0NAQEhdKE4yMylbQ0gyXVtDSDJdW0NIMl0z

> <s_epik_cmdline>
J2VwaWtfcHl0aG9uJywgJy1waCcsICc3LjAnLCAnLXRuJywgJzgnLCAnLW1hJywgJzIwMCcsICctbWV0YWxfYmluZGluZycsICctaW1hZScsICc8aW5maWxlLm1hZT4nLCAnLW9tYWUnLCAnPG91dGZpbGUubWFlPic=

> <r_lp_tautomer_probability>
1

> <r_epik_Ionization_Penalty>
4.48809

> <r_epik_Ionization_Penalty_Charging>
3.27284

> <r_epik_Ionization_Penalty_Neutral>
1.21525

> <r_epik_State_Penalty>
4.69427

> <r_epik_Charging_Adjusted_Penalty>
7.96711

> <i_epik_Tot_Q>
-1

> <i_epik_Tot_abs_Q>
1

> <r_epik_Metal_State_Penalty>
1.91976

> <b_epik_Metal_Only>
1

> <s_lp_Force_Field>
OPLS_2005

> <r_lp_Energy>
48.824

> <b_lp_Chiralities_Consistent>
1

> <s_lp_Variant>
AV-unprocessed.smi:1809-23

> <Gold.Version>
5.8.1

> <Gold.Id.Protein>
6NUR|6NUR_protein|mol2

> <Gold.PLP.Fitness>
40.9426

> <Gold.PLP.PLP>
-41.0066

> <Gold.PLP.part.hbond>
-1.8920

> <Gold.PLP.part.metal>
0.0000

> <Gold.PLP.part.buried>
-2.8948

> <Gold.PLP.part.nonpolar>
-37.1925

> <Gold.PLP.part.repulsive>
0.6336

> <Gold.PLP.ligand.clash>
0.0000

> <Gold.PLP.ligand.torsion>
1.7525

> <Gold.PLP.Chemscore.Hbond>
1.1420

> <Gold.PLP.Chemscore.CHOScore>
0.0000

> <Gold.PLP.Chemscore.Metal>
0.0000

> <Gold.Chemscore.Hbonds>
donor molecule, donor type, donor heavy atom, donor atom, acceptor molecule, acceptor atom, score
      L1  H     9    24       P1  8028  0.86
      P1  H  7989  7998       L1     6  0.09

> <Gold.PLP.Chemscore.Internal.Correction>
0.0150

> <Gold.Rescore>
     Score         DG    S(hbond)    S(metal)    S(lipo)     H(rot)  DE(clash)    DE(int)     intcor
     16.10     -18.07       1.04        0.00     106.52       1.31       0.11       1.86       ----

> <Gold.Chemscore.Fitness>
16.0972

> <Gold.Chemscore.DG>
-18.0667

> <Gold.Chemscore.ZeroCoef>
-5.4800

> <Gold.Chemscore.Hbond>
1.0373

> <Gold.Chemscore.Metal>
0.0000

> <Gold.Chemscore.Lipo>
106.5229

> <Gold.Chemscore.Internal_Hbond>
0.0000

> <Gold.Chemscore.DEClash>
0.1054

> <Gold.Chemscore.DEInternal>
1.8642

> <Gold.Chemscore.Rot>
1.3051

> <Gold.Chemscore.Internal.Correction>
   9.000000E+99

> <Gold.Chemscore.Hbonds>
donor molecule, donor type, donor heavy atom, donor atom, acceptor molecule, acceptor atom, score
      L1  H     9    24       P1  8028  0.84

> <Gold.Chemscore.Hbond.Weighted>
-3.4647

> <Gold.Chemscore.Metal.Weighted>
-0.0000

> <Gold.Chemscore.Lipo.Weighted>
-12.4632

> <Gold.Chemscore.Internal_Hbond.Weighted>
0.0000

> <Gold.Chemscore.DEClash.Weighted>
0.1054

> <Gold.Chemscore.DEInternal.Weighted>
1.8642

> <Gold.Chemscore.Rot.Weighted>
3.3412

> <Gold.Chemscore.Internal.Correction.Weighted>
   9.000000E+99

> <Gold.Protein.RotatedTorsions>
[ 6907 6896 6895 6894 ] final   39.14 input  -60.11 | X-H torsion
[ 7974 7965 7964 7962 ] final   -2.19 input  175.53 | X-H torsion
[ 8008 7997 7996 7995 ] final -129.91 input   59.86 | X-H torsion
[ 10167 10162 10161 10158 ] final    3.06 input  -65.29 | X-H torsion
[ 10718 10713 10712 10709 ] final  -32.42 input   66.30 | X-H torsion
[ 10763 10752 10751 10750 ] final  -33.48 input  -60.55 | X-H torsion
[ 11005 11000 10999 10996 ] final   67.25 input  -57.11 | X-H torsion

> <Gold.Protein.ActiveResidues>
 VAL166  LYS551  ARG553  GLY616  TRP617  ASP618  TYR619  PRO620  LYS621  CYS622 
 ASP623  PHE694  ASN695  SER759  ASP760  ASP761  ALA762  ILE779  LEU786  VAL792 
 PHE793  MET794  SER795  GLU796  ALA797  LYS798  CYS799  TRP800  GLU811  SER814 

> <Gold.Protein.RotatedAtoms>
  152.1656  134.8876  160.0538 H   0  0  0  0  0  0  0  0  0  0  0  0  # atno 6907 bound_to 6896
  151.9855  133.3767  159.4132 H   0  0  0  0  0  0  0  0  0  0  0  0  # atno 6908 bound_to 6896
  150.6894  134.3915  159.5122 H   0  0  0  0  0  0  0  0  0  0  0  0  # atno 6909 bound_to 6896
  146.2408  140.1533  142.8333 H   0  0  0  0  0  0  0  0  0  0  0  0  # atno 7974 bound_to 7965
  155.2870  140.0446  157.3020 H   0  0  0  0  0  0  0  0  0  0  0  0  # atno 8008 bound_to 7997
  154.5563  140.2333  155.8372 H   0  0  0  0  0  0  0  0  0  0  0  0  # atno 8009 bound_to 7997
  156.2010  140.3025  155.9534 H   0  0  0  0  0  0  0  0  0  0  0  0  # atno 8010 bound_to 7997
  140.6604  143.7318  150.7729 H   0  0  0  0  0  0  0  0  0  0  0  0  # atno 10167 bound_to 10162
  156.3751  130.4346  149.7514 H   0  0  0  0  0  0  0  0  0  0  0  0  # atno 10718 bound_to 10713
  153.8309  135.6866  153.4814 H   0  0  0  0  0  0  0  0  0  0  0  0  # atno 10763 bound_to 10752
  153.1511  135.4617  154.9636 H   0  0  0  0  0  0  0  0  0  0  0  0  # atno 10764 bound_to 10752
  154.7887  135.3294  154.7772 H   0  0  0  0  0  0  0  0  0  0  0  0  # atno 10765 bound_to 10752
  139.9782  134.6787  156.0312 H   0  0  0  0  0  0  0  0  0  0  0  0  # atno 11005 bound_to 11000
  145.0149  140.8745  143.5202 LP  0  0  0  0  0  0  0  0  0  0  0  0  # atno 17320 bound_to 7965
  145.1573  139.2479  143.5410 LP  0  0  0  0  0  0  0  0  0  0  0  0  # atno 17321 bound_to 7965
  140.0985  143.4810  152.2438 LP  0  0  0  0  0  0  0  0  0  0  0  0  # atno 17342 bound_to 10162
  139.5837  144.7522  151.3575 LP  0  0  0  0  0  0  0  0  0  0  0  0  # atno 17343 bound_to 10162
  156.4626  130.7959  151.2979 LP  0  0  0  0  0  0  0  0  0  0  0  0  # atno 17370 bound_to 10713
  157.7487  131.0061  150.3138 LP  0  0  0  0  0  0  0  0  0  0  0  0  # atno 17371 bound_to 10713
  141.1457  133.6556  156.3861 LP  0  0  0  0  0  0  0  0  0  0  0  0  # atno 17394 bound_to 11000
  140.5150  134.6359  157.5298 LP  0  0  0  0  0  0  0  0  0  0  0  0  # atno 17395 bound_to 11000

$$$$
