AV-unprocessed.smi:3019|AV-procd|sdf|11489|dock3
  -GOLD-   2272016433D 1   1.00000     0.00000
 Structure written by MMmdl.
 30 31  0  0  0  0  0  0  0  0  1 V2000
  150.5197  144.1686  159.6668 C   0  0  0  0  0  0  0  0  0  0  0  0
  151.7068  143.7233  158.7999 C   0  0  0  0  0  0  0  0  0  0  0  0
  152.4439  144.9173  158.1760 C   0  0  0  0  0  0  0  0  0  0  0  0
  151.2903  142.7284  157.7604 C   0  0  0  0  0  0  0  0  0  0  0  0
  150.3076  142.9733  156.8906 N   0  0  0  0  0  0  0  0  0  0  0  0
  150.1426  141.9016  156.0867 N   0  0  0  0  0  0  0  0  0  0  0  0
  151.0804  141.0688  156.5369 C   0  0  0  0  0  0  0  0  0  0  0  0
  151.2384  139.6999  155.9516 C   0  0  2  0  0  0  0  0  0  0  0  0
  152.7138  139.3625  155.6585 C   0  0  0  0  0  0  0  0  0  0  0  0
  152.8145  138.0646  154.9928 N   0  0  0  0  0  0  0  0  0  0  0  0
  151.9903  138.0271  153.7856 C   0  0  0  0  0  0  0  0  0  0  0  0
  150.5339  138.3983  154.1193 C   0  0  0  0  0  0  0  0  0  0  0  0
  150.4969  139.6818  154.7335 O   0  0  0  0  0  0  0  0  0  0  0  0
  151.8203  141.5205  157.5959 N   0  0  0  0  0  0  0  0  0  0  0  0
  150.0468  143.3146  160.1530 H   0  0  0  0  0  0  0  0  0  0  0  0
  149.7597  144.6739  159.0696 H   0  0  0  0  0  0  0  0  0  0  0  0
  150.8402  144.8579  160.4483 H   0  0  0  0  0  0  0  0  0  0  0  0
  152.4144  143.2225  159.4624 H   0  0  0  0  0  0  0  0  0  0  0  0
  153.3178  144.5878  157.6132 H   0  0  0  0  0  0  0  0  0  0  0  0
  152.7875  145.6116  158.9431 H   0  0  0  0  0  0  0  0  0  0  0  0
  151.7973  145.4699  157.4931 H   0  0  0  0  0  0  0  0  0  0  0  0
  150.8142  138.9702  156.6446 H   0  0  0  0  0  0  0  0  0  0  0  0
  153.1495  140.1357  155.0244 H   0  0  0  0  0  0  0  0  0  0  0  0
  153.2896  139.3547  156.5843 H   0  0  0  0  0  0  0  0  0  0  0  0
  152.3849  138.7241  153.0454 H   0  0  0  0  0  0  0  0  0  0  0  0
  152.0307  137.0353  153.3353 H   0  0  0  0  0  0  0  0  0  0  0  0
  149.9360  138.4271  153.2083 H   0  0  0  0  0  0  0  0  0  0  0  0
  150.0802  137.6527  154.7742 H   0  0  0  0  0  0  0  0  0  0  0  0
  153.7827  137.8820  154.7490 H   0  0  0  0  0  0  0  0  0  0  0  0
  149.7456  143.8092  156.8177 H   0  0  0  0  0  0  0  0  0  0  0  0
  1  2  1  0  0  0  0
  1 15  1  0  0  0  0
  1 16  1  0  0  0  0
  1 17  1  0  0  0  0
  2  3  1  0  0  0  0
  2  4  1  0  0  0  0
  2 18  1  0  0  0  0
  3 19  1  0  0  0  0
  3 20  1  0  0  0  0
  3 21  1  0  0  0  0
  4 14  2  0  0  0  0
  4  5  1  0  0  0  0
  5  6  1  0  0  0  0
  5 30  1  0  0  0  0
  6  7  2  0  0  0  0
  7  8  1  0  0  0  0
  7 14  1  0  0  0  0
  8 13  1  0  0  0  0
  8  9  1  0  0  0  0
  8 22  1  0  0  0  0
  9 10  1  0  0  0  0
  9 23  1  0  0  0  0
  9 24  1  0  0  0  0
 10 11  1  0  0  0  0
 10 29  1  0  0  0  0
 11 12  1  0  0  0  0
 11 25  1  0  0  0  0
 11 26  1  0  0  0  0
 12 13  1  0  0  0  0
 12 27  1  0  0  0  0
 12 28  1  0  0  0  0
M  END
> <s_m_source_file>
AV-unprocessed.smi

> <i_m_source_file_index>
3019

> <i_lp_mmshare_version>
43012

> <i_f3d_flags>
0

> <s_epik_input>
W0NIM11bQ0hdKFtDSDNdKWMxbltuSF1jKG4xKVtDQEBIXTJbQ0gyXVtOSF1bQ0gyXVtDSDJdTzI=

> <s_epik_cmdline>
J2VwaWtfcHl0aG9uJywgJy1waCcsICc3LjAnLCAnLXRuJywgJzgnLCAnLW1hJywgJzIwMCcsICctbWV0YWxfYmluZGluZycsICctaW1hZScsICc8aW5maWxlLm1hZT4nLCAnLW9tYWUnLCAnPG91dGZpbGUubWFlPic=

> <r_lp_tautomer_probability>
0.948284

> <r_epik_Ionization_Penalty>
1.10045

> <r_epik_Ionization_Penalty_Charging>
0

> <r_epik_Ionization_Penalty_Neutral>
1.10045

> <r_epik_State_Penalty>
1.2625

> <r_epik_Charging_Adjusted_Penalty>
1.2625

> <i_epik_Tot_Q>
0

> <i_epik_Tot_abs_Q>
0

> <r_epik_Metal_State_Penalty>
1.57133

> <b_epik_Metal_Only>
0

> <s_lp_Force_Field>
OPLS_2005

> <r_lp_Energy>
11.1222

> <b_lp_Chiralities_Consistent>
1

> <s_lp_Variant>
AV-unprocessed.smi:3019-5

> <Gold.Version>
5.8.1

> <Gold.Id.Protein>
6NUR|6NUR_protein|mol2

> <Gold.PLP.Fitness>
33.8591

> <Gold.PLP.PLP>
-29.0649

> <Gold.PLP.part.hbond>
-2.8825

> <Gold.PLP.part.metal>
0.0000

> <Gold.PLP.part.buried>
-3.5851

> <Gold.PLP.part.nonpolar>
-23.5522

> <Gold.PLP.part.repulsive>
0.5792

> <Gold.PLP.ligand.clash>
0.0000

> <Gold.PLP.ligand.torsion>
0.4019

> <Gold.PLP.Chemscore.Hbond>
1.8480

> <Gold.PLP.Chemscore.CHOScore>
0.0000

> <Gold.PLP.Chemscore.Metal>
0.0000

> <Gold.Chemscore.Hbonds>
donor molecule, donor type, donor heavy atom, donor atom, acceptor molecule, acceptor atom, score
      L1  H     5    30       P1  8028  0.83
      P1  H  7989  7998       L1    13  0.94

> <Gold.PLP.Chemscore.Internal.Correction>
0.0539

> <Gold.Rescore>
     Score         DG    S(hbond)    S(metal)    S(lipo)     H(rot)  DE(clash)    DE(int)     intcor
     14.41     -14.77       1.49        0.00      64.44       1.26       0.21       0.15       ----

> <Gold.Chemscore.Fitness>
14.4135

> <Gold.Chemscore.DG>
-14.7703

> <Gold.Chemscore.ZeroCoef>
-5.4800

> <Gold.Chemscore.Hbond>
1.4897

> <Gold.Chemscore.Metal>
0.0000

> <Gold.Chemscore.Lipo>
64.4418

> <Gold.Chemscore.Internal_Hbond>
0.0000

> <Gold.Chemscore.DEClash>
0.2095

> <Gold.Chemscore.DEInternal>
0.1472

> <Gold.Chemscore.Rot>
1.2598

> <Gold.Chemscore.Internal.Correction>
   9.000000E+99

> <Gold.Chemscore.Hbonds>
donor molecule, donor type, donor heavy atom, donor atom, acceptor molecule, acceptor atom, score
      L1  H     5    30       P1  8028  0.81
      P1  H  7989  7998       L1    13  0.16

> <Gold.Chemscore.Hbond.Weighted>
-4.9757

> <Gold.Chemscore.Metal.Weighted>
-0.0000

> <Gold.Chemscore.Lipo.Weighted>
-7.5397

> <Gold.Chemscore.Internal_Hbond.Weighted>
0.0000

> <Gold.Chemscore.DEClash.Weighted>
0.2095

> <Gold.Chemscore.DEInternal.Weighted>
0.1472

> <Gold.Chemscore.Rot.Weighted>
3.2251

> <Gold.Chemscore.Internal.Correction.Weighted>
   9.000000E+99

> <Gold.Protein.RotatedTorsions>
[ 6907 6896 6895 6894 ] final  179.18 input  -60.11 | X-H torsion
[ 7974 7965 7964 7962 ] final  126.72 input  175.53 | X-H torsion
[ 8008 7997 7996 7995 ] final  -69.06 input   59.86 | X-H torsion
[ 10167 10162 10161 10158 ] final  -96.28 input  -65.29 | X-H torsion
[ 10718 10713 10712 10709 ] final  163.02 input   66.30 | X-H torsion
[ 10763 10752 10751 10750 ] final  -14.97 input  -60.55 | X-H torsion
[ 11005 11000 10999 10996 ] final  139.25 input  -57.11 | X-H torsion

> <Gold.Protein.ActiveResidues>
 VAL166  LYS551  ARG553  GLY616  TRP617  ASP618  TYR619  PRO620  LYS621  CYS622 
 ASP623  PHE694  ASN695  SER759  ASP760  ASP761  ALA762  ILE779  LEU786  VAL792 
 PHE793  MET794  SER795  GLU796  ALA797  LYS798  CYS799  TRP800  GLU811  SER814 

> <Gold.Protein.RotatedAtoms>
  151.6758  133.3313  159.3207 H   0  0  0  0  0  0  0  0  0  0  0  0  # atno 6907 bound_to 6896
  150.7846  134.6823  159.6460 H   0  0  0  0  0  0  0  0  0  0  0  0  # atno 6908 bound_to 6896
  152.3912  134.6441  160.0159 H   0  0  0  0  0  0  0  0  0  0  0  0  # atno 6909 bound_to 6896
  145.0585  139.3824  143.5018 H   0  0  0  0  0  0  0  0  0  0  0  0  # atno 7974 bound_to 7965
  154.4912  140.0861  156.7598 H   0  0  0  0  0  0  0  0  0  0  0  0  # atno 8008 bound_to 7997
  155.4227  140.3446  155.4254 H   0  0  0  0  0  0  0  0  0  0  0  0  # atno 8009 bound_to 7997
  156.1332  140.1507  156.9022 H   0  0  0  0  0  0  0  0  0  0  0  0  # atno 8010 bound_to 7997
  140.2954  143.3195  152.0303 H   0  0  0  0  0  0  0  0  0  0  0  0  # atno 10167 bound_to 10162
  157.1144  131.0476  151.2443 H   0  0  0  0  0  0  0  0  0  0  0  0  # atno 10718 bound_to 10713
  153.5363  135.7014  153.5658 H   0  0  0  0  0  0  0  0  0  0  0  0  # atno 10763 bound_to 10752
  153.3643  135.3961  155.1742 H   0  0  0  0  0  0  0  0  0  0  0  0  # atno 10764 bound_to 10752
  154.8679  135.3796  154.4864 H   0  0  0  0  0  0  0  0  0  0  0  0  # atno 10765 bound_to 10752
  140.0241  134.9383  157.0533 H   0  0  0  0  0  0  0  0  0  0  0  0  # atno 11005 bound_to 11000
  146.3523  140.0272  142.8653 LP  0  0  0  0  0  0  0  0  0  0  0  0  # atno 17320 bound_to 7965
  145.1438  140.9586  143.4473 LP  0  0  0  0  0  0  0  0  0  0  0  0  # atno 17321 bound_to 7965
  139.4927  144.6494  151.6707 LP  0  0  0  0  0  0  0  0  0  0  0  0  # atno 17342 bound_to 10162
  140.5696  144.0131  150.6210 LP  0  0  0  0  0  0  0  0  0  0  0  0  # atno 17343 bound_to 10162
  157.4531  130.7610  149.7169 LP  0  0  0  0  0  0  0  0  0  0  0  0  # atno 17370 bound_to 10713
  155.9843  130.3993  150.3319 LP  0  0  0  0  0  0  0  0  0  0  0  0  # atno 17371 bound_to 10713
  140.4336  134.1754  155.7169 LP  0  0  0  0  0  0  0  0  0  0  0  0  # atno 17394 bound_to 11000
  141.1792  133.8450  157.1317 LP  0  0  0  0  0  0  0  0  0  0  0  0  # atno 17395 bound_to 11000

$$$$
