AV-unprocessed.smi:148|AV-procd|sdf|1210|dock8
  -GOLD-   2262018383D 1   1.00000     0.00000
 Structure written by MMmdl.
 63 67  0  0  0  0  0  0  0  0  1 V2000
  147.0541  138.0596  151.4948 O   0  0  0  0  0  0  0  0  0  0  0  0
  146.5862  138.9193  152.5146 C   0  0  0  0  0  0  0  0  0  0  0  0
  146.9449  138.3867  153.9215 C   0  0  2  0  0  0  0  0  0  0  0  0
  145.6571  138.3219  154.7845 C   0  0  0  0  0  0  0  0  0  0  0  0
  145.8856  137.9064  156.1555 N   0  0  0  0  0  0  0  0  0  0  0  0
  145.5557  138.6084  157.2933 C   0  0  0  0  0  0  0  0  0  0  0  0
  145.8272  138.0041  158.4174 N   0  0  0  0  0  0  0  0  0  0  0  0
  146.4060  136.8057  158.0207 C   0  0  0  0  0  0  0  0  0  0  0  0
  146.8893  135.6684  158.7158 C   0  0  0  0  0  0  0  0  0  0  0  0
  146.7944  135.5653  160.0599 N   0  0  0  0  0  0  0  0  0  0  0  0
  148.0562  135.9299  160.7033 C   0  0  0  0  0  0  0  0  0  0  0  0
  147.8858  136.0692  162.2212 C   0  0  0  0  0  0  0  0  0  0  0  0
  147.2953  134.7835  162.8087 C   0  0  0  0  0  0  0  0  0  0  0  0
  145.9735  134.4435  162.1066 C   0  0  0  0  0  0  0  0  0  0  0  0
  146.1448  134.3411  160.5667 C   0  0  1  0  0  0  0  0  0  0  0  0
  144.8135  133.9928  159.8128 C   0  0  2  0  0  0  0  0  0  0  0  0
  143.7168  135.0777  159.9317 C   0  0  0  0  0  0  0  0  0  0  0  0
  142.4620  134.3944  160.4920 C   0  0  0  0  0  0  0  0  0  0  0  0
  142.9531  133.0952  161.1275 C   0  0  0  0  0  0  0  0  0  0  0  0
  144.1087  132.6794  160.2193 C   0  0  2  0  0  0  0  0  0  0  0  0
  144.9448  131.6946  160.7923 O   0  0  0  0  0  0  0  0  0  0  0  0
  147.4130  134.6466  157.9881 N   0  0  0  0  0  0  0  0  0  0  0  0
  147.4428  134.7295  156.6543 C   0  0  0  0  0  0  0  0  0  0  0  0
  146.9993  135.7139  155.8684 N   0  0  0  0  0  0  0  0  0  0  0  0
  146.4821  136.7408  156.6028 C   0  0  0  0  0  0  0  0  0  0  0  0
  148.1251  139.1685  154.5753 C   0  0  2  0  0  0  0  0  0  0  0  0
  148.1473  140.6584  154.2676 C   0  0  0  0  0  0  0  0  0  0  0  0
  149.5796  141.0375  154.6122 C   0  0  0  0  0  0  0  0  0  0  0  0
  150.3487  139.9409  154.1456 O   0  0  0  0  0  0  0  0  0  0  0  0
  149.5405  138.7681  154.1190 C   0  0  0  0  0  0  0  0  0  0  0  0
  147.4985  137.3286  151.8966 H   0  0  0  0  0  0  0  0  0  0  0  0
  147.0198  139.9079  152.3606 H   0  0  0  0  0  0  0  0  0  0  0  0
  145.5092  139.0428  152.4026 H   0  0  0  0  0  0  0  0  0  0  0  0
  147.2837  137.3608  153.7715 H   0  0  0  0  0  0  0  0  0  0  0  0
  145.1594  139.2918  154.7921 H   0  0  0  0  0  0  0  0  0  0  0  0
  144.9478  137.6186  154.3466 H   0  0  0  0  0  0  0  0  0  0  0  0
  145.0791  139.5775  157.2625 H   0  0  0  0  0  0  0  0  0  0  0  0
  148.8077  135.1693  160.4863 H   0  0  0  0  0  0  0  0  0  0  0  0
  148.4254  136.8701  160.2905 H   0  0  0  0  0  0  0  0  0  0  0  0
  148.8464  136.2896  162.6874 H   0  0  0  0  0  0  0  0  0  0  0  0
  147.2296  136.9120  162.4419 H   0  0  0  0  0  0  0  0  0  0  0  0
  148.0014  133.9616  162.6849 H   0  0  0  0  0  0  0  0  0  0  0  0
  147.1331  134.8990  163.8806 H   0  0  0  0  0  0  0  0  0  0  0  0
  145.5982  133.5096  162.5207 H   0  0  0  0  0  0  0  0  0  0  0  0
  145.2372  135.2060  162.3594 H   0  0  0  0  0  0  0  0  0  0  0  0
  146.8456  133.5266  160.3771 H   0  0  0  0  0  0  0  0  0  0  0  0
  145.0505  133.8675  158.7560 H   0  0  0  0  0  0  0  0  0  0  0  0
  144.0253  135.8931  160.5852 H   0  0  0  0  0  0  0  0  0  0  0  0
  143.5039  135.5276  158.9614 H   0  0  0  0  0  0  0  0  0  0  0  0
  141.9237  135.0255  161.1993 H   0  0  0  0  0  0  0  0  0  0  0  0
  141.7797  134.1630  159.6729 H   0  0  0  0  0  0  0  0  0  0  0  0
  143.3041  133.2878  162.1415 H   0  0  0  0  0  0  0  0  0  0  0  0
  142.1714  132.3370  161.1850 H   0  0  0  0  0  0  0  0  0  0  0  0
  143.6749  132.2376  159.3207 H   0  0  0  0  0  0  0  0  0  0  0  0
  145.3127  132.0412  161.5908 H   0  0  0  0  0  0  0  0  0  0  0  0
  147.8736  133.8813  156.1429 H   0  0  0  0  0  0  0  0  0  0  0  0
  148.0707  139.0541  155.6592 H   0  0  0  0  0  0  0  0  0  0  0  0
  147.9612  140.8351  153.2072 H   0  0  0  0  0  0  0  0  0  0  0  0
  147.4185  141.2280  154.8448 H   0  0  0  0  0  0  0  0  0  0  0  0
  149.8931  141.9741  154.1509 H   0  0  0  0  0  0  0  0  0  0  0  0
  149.7038  141.1269  155.6924 H   0  0  0  0  0  0  0  0  0  0  0  0
  149.9788  138.0075  154.7640 H   0  0  0  0  0  0  0  0  0  0  0  0
  149.5394  138.3870  153.0974 H   0  0  0  0  0  0  0  0  0  0  0  0
  1  2  1  0  0  0  0
  1 31  1  0  0  0  0
  2  3  1  0  0  0  0
  2 32  1  0  0  0  0
  2 33  1  0  0  0  0
  3  4  1  0  0  0  0
  3 26  1  0  0  0  0
  3 34  1  0  0  0  0
  4  5  1  0  0  0  0
  4 35  1  0  0  0  0
  4 36  1  0  0  0  0
  5 25  1  0  0  0  0
  5  6  1  0  0  0  0
  6  7  2  0  0  0  0
  6 37  1  0  0  0  0
  7  8  1  0  0  0  0
  8 25  2  0  0  0  0
  8  9  1  0  0  0  0
  9 10  1  0  0  0  0
  9 22  2  0  0  0  0
 10 15  1  0  0  0  0
 10 11  1  0  0  0  0
 11 12  1  0  0  0  0
 11 38  1  0  0  0  0
 11 39  1  0  0  0  0
 12 13  1  0  0  0  0
 12 40  1  0  0  0  0
 12 41  1  0  0  0  0
 13 14  1  0  0  0  0
 13 42  1  0  0  0  0
 13 43  1  0  0  0  0
 14 15  1  0  0  0  0
 14 44  1  0  0  0  0
 14 45  1  0  0  0  0
 15 16  1  0  0  0  0
 15 46  1  0  0  0  0
 16 20  1  0  0  0  0
 16 17  1  0  0  0  0
 16 47  1  0  0  0  0
 17 18  1  0  0  0  0
 17 48  1  0  0  0  0
 17 49  1  0  0  0  0
 18 19  1  0  0  0  0
 18 50  1  0  0  0  0
 18 51  1  0  0  0  0
 19 20  1  0  0  0  0
 19 52  1  0  0  0  0
 19 53  1  0  0  0  0
 20 21  1  0  0  0  0
 20 54  1  0  0  0  0
 21 55  1  0  0  0  0
 22 23  1  0  0  0  0
 23 24  2  0  0  0  0
 23 56  1  0  0  0  0
 24 25  1  0  0  0  0
 26 30  1  0  0  0  0
 26 27  1  0  0  0  0
 26 57  1  0  0  0  0
 27 28  1  0  0  0  0
 27 58  1  0  0  0  0
 27 59  1  0  0  0  0
 28 29  1  0  0  0  0
 28 60  1  0  0  0  0
 28 61  1  0  0  0  0
 29 30  1  0  0  0  0
 30 62  1  0  0  0  0
 30 63  1  0  0  0  0
M  END
> <s_m_source_file>
AV-unprocessed.smi

> <i_m_source_file_index>
148

> <i_lp_mmshare_version>
43012

> <i_f3d_flags>
0

> <s_epik_input>
W0NIMl0xT1tDSDJdW0NIMl1bQ0BIXTFbQ0BIXShbQ0gyXVtPSF0pW0NIMl1uKFtjSF1uMiljKGMyMyluW2NIXW5jM040W0NIMl1bQ0gyXVtDSDJdW0NIMl1bQ0BIXTRbQ0BASF01W0NIMl1bQ0gyXVtDSDJdW0NASF01W09IXQ==

> <s_epik_cmdline>
J2VwaWtfcHl0aG9uJywgJy1waCcsICc3LjAnLCAnLXRuJywgJzgnLCAnLW1hJywgJzIwMCcsICctbWV0YWxfYmluZGluZycsICctaW1hZScsICc8aW5maWxlLm1hZT4nLCAnLW9tYWUnLCAnPG91dGZpbGUubWFlPic=

> <r_lp_tautomer_probability>
1

> <r_epik_Ionization_Penalty>
0.00556303

> <r_epik_Ionization_Penalty_Charging>
0

> <r_epik_Ionization_Penalty_Neutral>
0.00556303

> <r_epik_State_Penalty>
0.00401767

> <r_epik_Charging_Adjusted_Penalty>
0.00401767

> <i_epik_Tot_Q>
0

> <i_epik_Tot_abs_Q>
0

> <r_epik_Metal_State_Penalty>
-0

> <b_epik_Metal_Only>
0

> <s_lp_Force_Field>
OPLS_2005

> <r_lp_Energy>
71.2164

> <b_lp_Chiralities_Consistent>
1

> <s_lp_Variant>
AV-unprocessed.smi:148-9

> <Gold.Version>
5.8.1

> <Gold.Id.Protein>
6NUR|6NUR_protein|mol2

> <Gold.PLP.Fitness>
40.2206

> <Gold.PLP.PLP>
-35.1006

> <Gold.PLP.part.hbond>
-3.7751

> <Gold.PLP.part.metal>
0.0000

> <Gold.PLP.part.buried>
-5.2161

> <Gold.PLP.part.nonpolar>
-26.5247

> <Gold.PLP.part.repulsive>
0.1491

> <Gold.PLP.ligand.clash>
0.0000

> <Gold.PLP.ligand.torsion>
1.6613

> <Gold.PLP.Chemscore.Hbond>
2.6760

> <Gold.PLP.Chemscore.CHOScore>
0.0000

> <Gold.PLP.Chemscore.Metal>
0.0000

> <Gold.Chemscore.Hbonds>
donor molecule, donor type, donor heavy atom, donor atom, acceptor molecule, acceptor atom, score
      L1  H     1    31       P1  7948  0.90
      P1  H  7954  7966       L1     1  0.50
      P1  H  7989  7998       L1    29  0.80

> <Gold.PLP.Chemscore.Internal.Correction>
0.4146

> <Gold.Rescore>
     Score         DG    S(hbond)    S(metal)    S(lipo)     H(rot)  DE(clash)    DE(int)     intcor
     13.40     -14.69       2.21        0.00      88.14       3.32       0.15       1.14       ----

> <Gold.Chemscore.Fitness>
13.3977

> <Gold.Chemscore.DG>
-14.6886

> <Gold.Chemscore.ZeroCoef>
-5.4800

> <Gold.Chemscore.Hbond>
2.2144

> <Gold.Chemscore.Metal>
0.0000

> <Gold.Chemscore.Lipo>
88.1407

> <Gold.Chemscore.Internal_Hbond>
0.0000

> <Gold.Chemscore.DEClash>
0.1465

> <Gold.Chemscore.DEInternal>
1.1443

> <Gold.Chemscore.Rot>
3.3203

> <Gold.Chemscore.Internal.Correction>
   9.000000E+99

> <Gold.Chemscore.Hbonds>
donor molecule, donor type, donor heavy atom, donor atom, acceptor molecule, acceptor atom, score
      L1  H     1    31       P1  7948  0.88
      P1  H  7954  7966       L1     1  0.02
      P1  H  7989  7998       L1    29  0.12

> <Gold.Chemscore.Hbond.Weighted>
-7.3961

> <Gold.Chemscore.Metal.Weighted>
-0.0000

> <Gold.Chemscore.Lipo.Weighted>
-10.3125

> <Gold.Chemscore.Internal_Hbond.Weighted>
0.0000

> <Gold.Chemscore.DEClash.Weighted>
0.1465

> <Gold.Chemscore.DEInternal.Weighted>
1.1443

> <Gold.Chemscore.Rot.Weighted>
8.5000

> <Gold.Chemscore.Internal.Correction.Weighted>
   9.000000E+99

> <Gold.Protein.RotatedTorsions>
[ 6907 6896 6895 6894 ] final  -51.62 input  -60.11 | X-H torsion
[ 7974 7965 7964 7962 ] final -141.04 input  175.53 | X-H torsion
[ 8008 7997 7996 7995 ] final  -41.55 input   59.86 | X-H torsion
[ 10167 10162 10161 10158 ] final  157.95 input  -65.29 | X-H torsion
[ 10718 10713 10712 10709 ] final   76.87 input   66.30 | X-H torsion
[ 10763 10752 10751 10750 ] final   -8.44 input  -60.55 | X-H torsion
[ 11005 11000 10999 10996 ] final   18.78 input  -57.11 | X-H torsion

> <Gold.Protein.ActiveResidues>
 VAL166  LYS551  ARG553  GLY616  TRP617  ASP618  TYR619  PRO620  LYS621  CYS622 
 ASP623  PHE694  ASN695  SER759  ASP760  ASP761  ALA762  ILE779  LEU786  VAL792 
 PHE793  MET794  SER795  GLU796  ALA797  LYS798  CYS799  TRP800  GLU811  SER814 

> <Gold.Protein.RotatedAtoms>
  150.8594  134.7942  159.7071 H   0  0  0  0  0  0  0  0  0  0  0  0  # atno 6907 bound_to 6896
  152.4636  134.5124  159.9767 H   0  0  0  0  0  0  0  0  0  0  0  0  # atno 6908 bound_to 6896
  151.5231  133.3424  159.2940 H   0  0  0  0  0  0  0  0  0  0  0  0  # atno 6909 bound_to 6896
  144.8550  140.6127  143.5365 H   0  0  0  0  0  0  0  0  0  0  0  0  # atno 7974 bound_to 7965
  154.4003  140.1496  156.3209 H   0  0  0  0  0  0  0  0  0  0  0  0  # atno 8008 bound_to 7997
  155.8531  140.3457  155.5685 H   0  0  0  0  0  0  0  0  0  0  0  0  # atno 8009 bound_to 7997
  155.7963  140.0864  157.1972 H   0  0  0  0  0  0  0  0  0  0  0  0  # atno 8010 bound_to 7997
  139.4825  144.4870  151.8363 H   0  0  0  0  0  0  0  0  0  0  0  0  # atno 10167 bound_to 10162
  157.6690  130.9795  150.1559 H   0  0  0  0  0  0  0  0  0  0  0  0  # atno 10718 bound_to 10713
  153.4405  135.7013  153.6172 H   0  0  0  0  0  0  0  0  0  0  0  0  # atno 10763 bound_to 10752
  153.4549  135.3749  155.2305 H   0  0  0  0  0  0  0  0  0  0  0  0  # atno 10764 bound_to 10752
  154.8727  135.4006  154.3803 H   0  0  0  0  0  0  0  0  0  0  0  0  # atno 10765 bound_to 10752
  140.4210  134.1518  155.7673 H   0  0  0  0  0  0  0  0  0  0  0  0  # atno 11005 bound_to 11000
  145.4424  139.1534  143.3963 LP  0  0  0  0  0  0  0  0  0  0  0  0  # atno 17320 bound_to 7965
  146.2816  140.4546  142.8774 LP  0  0  0  0  0  0  0  0  0  0  0  0  # atno 17321 bound_to 7965
  140.4351  144.2063  150.5889 LP  0  0  0  0  0  0  0  0  0  0  0  0  # atno 17342 bound_to 10162
  140.4740  143.2402  151.9049 LP  0  0  0  0  0  0  0  0  0  0  0  0  # atno 17343 bound_to 10162
  156.2347  130.3685  149.8404 LP  0  0  0  0  0  0  0  0  0  0  0  0  # atno 17370 bound_to 10713
  156.6221  130.8631  151.3477 LP  0  0  0  0  0  0  0  0  0  0  0  0  # atno 17371 bound_to 10713
  141.1784  133.8466  157.1343 LP  0  0  0  0  0  0  0  0  0  0  0  0  # atno 17394 bound_to 11000
  140.0200  134.9950  157.0572 LP  0  0  0  0  0  0  0  0  0  0  0  0  # atno 17395 bound_to 11000

$$$$
