AV-unprocessed.smi:3285|AV-procd|sdf|12584|dock10
  -GOLD-   2272018503D 1   1.00000     0.00000
 Structure written by MMmdl.
 45 46  0  0  0  0  0  0  0  0  2 V2000
  145.7864  142.5795  158.8445 C   0  0  0  0  0  0  0  0  0  0  0  0
  145.6209  142.9723  157.4043 C   0  0  0  0  0  0  0  0  0  0  0  0
  144.7763  143.9401  157.0931 N   0  0  0  0  0  0  0  0  0  0  0  0
  144.8388  144.0723  155.7030 O   0  0  0  0  0  0  0  0  0  0  0  0
  145.7296  143.1678  155.2249 C   0  0  0  0  0  0  0  0  0  0  0  0
  145.9370  143.1628  153.7474 C   0  0  0  0  0  0  0  0  0  0  0  0
  146.2668  142.4386  156.2513 C   0  0  0  0  0  0  0  0  0  0  0  0
  147.2959  141.3378  156.1918 C   0  0  0  0  0  0  0  0  0  0  0  0
  148.4725  141.5940  157.1459 C   0  0  0  0  0  0  0  0  0  0  0  0
  149.6151  142.2078  156.4359 N   0  3  0  0  0  0  0  0  0  0  0  0
  150.8705  142.3060  157.2113 C   0  0  2  0  0  0  0  0  0  0  0  0
  151.1033  140.9968  157.9807 C   0  0  0  0  0  0  0  0  0  0  0  0
  152.3915  141.0625  158.8117 C   0  0  0  0  0  0  0  0  0  0  0  0
  152.3841  142.2496  159.7954 C   0  0  1  0  0  0  0  0  0  0  0  0
  153.6909  142.2614  160.6082 C   0  0  0  0  0  0  0  0  0  0  0  0
  152.1282  143.5818  159.0418 C   0  0  2  0  0  0  0  0  0  0  0  0
  152.0494  144.7968  159.9834 C   0  0  0  0  0  0  0  0  0  0  0  0
  150.8422  143.4939  158.1928 C   0  0  0  0  0  0  0  0  0  0  0  0
  146.6840  141.9803  158.9954 H   0  0  0  0  0  0  0  0  0  0  0  0
  144.9347  141.9928  159.1889 H   0  0  0  0  0  0  0  0  0  0  0  0
  145.8666  143.4570  159.4866 H   0  0  0  0  0  0  0  0  0  0  0  0
  146.6574  142.4006  153.4511 H   0  0  0  0  0  0  0  0  0  0  0  0
  146.3109  144.1285  153.4075 H   0  0  0  0  0  0  0  0  0  0  0  0
  145.0007  142.9609  153.2269 H   0  0  0  0  0  0  0  0  0  0  0  0
  146.8410  140.3797  156.4451 H   0  0  0  0  0  0  0  0  0  0  0  0
  147.6751  141.2143  155.1770 H   0  0  0  0  0  0  0  0  0  0  0  0
  148.1529  142.2482  157.9582 H   0  0  0  0  0  0  0  0  0  0  0  0
  148.7852  140.6524  157.5971 H   0  0  0  0  0  0  0  0  0  0  0  0
  149.7924  141.6983  155.5821 H   0  0  0  0  0  0  0  0  0  0  0  0
  151.6961  142.4382  156.5101 H   0  0  0  0  0  0  0  0  0  0  0  0
  150.2567  140.7941  158.6386 H   0  0  0  0  0  0  0  0  0  0  0  0
  151.1614  140.1590  157.2846 H   0  0  0  0  0  0  0  0  0  0  0  0
  152.5139  140.1269  159.3589 H   0  0  0  0  0  0  0  0  0  0  0  0
  153.2509  141.1413  158.1440 H   0  0  0  0  0  0  0  0  0  0  0  0
  151.5633  142.0927  160.4973 H   0  0  0  0  0  0  0  0  0  0  0  0
  154.5490  142.4928  159.9765 H   0  0  0  0  0  0  0  0  0  0  0  0
  153.8727  141.2906  161.0702 H   0  0  0  0  0  0  0  0  0  0  0  0
  153.6598  142.9932  161.4149 H   0  0  0  0  0  0  0  0  0  0  0  0
  152.9630  143.7505  158.3596 H   0  0  0  0  0  0  0  0  0  0  0  0
  151.2805  144.6604  160.7447 H   0  0  0  0  0  0  0  0  0  0  0  0
  151.8100  145.7057  159.4307 H   0  0  0  0  0  0  0  0  0  0  0  0
  152.9964  144.9777  160.4912 H   0  0  0  0  0  0  0  0  0  0  0  0
  150.7153  144.4274  157.6445 H   0  0  0  0  0  0  0  0  0  0  0  0
  149.9762  143.4051  158.8510 H   0  0  0  0  0  0  0  0  0  0  0  0
  149.3371  143.1482  156.1931 H   0  0  0  0  0  0  0  0  0  0  0  0
  1  2  1  0  0  0  0
  1 19  1  0  0  0  0
  1 20  1  0  0  0  0
  1 21  1  0  0  0  0
  2  7  1  0  0  0  0
  2  3  2  0  0  0  0
  3  4  1  0  0  0  0
  4  5  1  0  0  0  0
  5  6  1  0  0  0  0
  5  7  2  0  0  0  0
  6 22  1  0  0  0  0
  6 23  1  0  0  0  0
  6 24  1  0  0  0  0
  7  8  1  0  0  0  0
  8  9  1  0  0  0  0
  8 25  1  0  0  0  0
  8 26  1  0  0  0  0
  9 10  1  0  0  0  0
  9 27  1  0  0  0  0
  9 28  1  0  0  0  0
 10 11  1  0  0  0  0
 10 29  1  0  0  0  0
 10 45  1  0  0  0  0
 11 18  1  0  0  0  0
 11 12  1  0  0  0  0
 11 30  1  0  0  0  0
 12 13  1  0  0  0  0
 12 31  1  0  0  0  0
 12 32  1  0  0  0  0
 13 14  1  0  0  0  0
 13 33  1  0  0  0  0
 13 34  1  0  0  0  0
 14 15  1  0  0  0  0
 14 16  1  0  0  0  0
 14 35  1  0  0  0  0
 15 36  1  0  0  0  0
 15 37  1  0  0  0  0
 15 38  1  0  0  0  0
 16 17  1  0  0  0  0
 16 18  1  0  0  0  0
 16 39  1  0  0  0  0
 17 40  1  0  0  0  0
 17 41  1  0  0  0  0
 17 42  1  0  0  0  0
 18 43  1  0  0  0  0
 18 44  1  0  0  0  0
M  CHG  1  10   1
M  END
> <s_m_source_file>
AV-unprocessed.smi

> <i_m_source_file_index>
3285

> <i_lp_mmshare_version>
43012

> <i_f3d_flags>
0

> <s_epik_input>
W0NIM11jMW5vYyhbQ0gzXSljMVtDSDJdW0NIMl1bTkhdW0NAQEhdMltDSDJdW0NIMl1bQ0BASF0oW0NIM10pW0NAQEhdKFtDSDNdKVtDSDJdMg==

> <s_epik_cmdline>
J2VwaWtfcHl0aG9uJywgJy1waCcsICc3LjAnLCAnLXRuJywgJzgnLCAnLW1hJywgJzIwMCcsICctbWV0YWxfYmluZGluZycsICctaW1hZScsICc8aW5maWxlLm1hZT4nLCAnLW9tYWUnLCAnPG91dGZpbGUubWFlPic=

> <r_lp_tautomer_probability>
1

> <r_epik_Ionization_Penalty>
0.000204615

> <r_epik_Ionization_Penalty_Charging>
0.000204615

> <r_epik_Ionization_Penalty_Neutral>
9.28663e-11

> <r_epik_State_Penalty>
-0

> <r_epik_Charging_Adjusted_Penalty>
0.000204615

> <i_epik_Tot_Q>
1

> <i_epik_Tot_abs_Q>
1

> <r_epik_Metal_State_Penalty>
-0

> <b_epik_Metal_Only>
0

> <s_lp_Force_Field>
OPLS_2005

> <r_lp_Energy>
12.3139

> <b_lp_Chiralities_Consistent>
1

> <s_lp_Variant>
AV-unprocessed.smi:3285-5

> <Gold.Version>
5.8.1

> <Gold.Id.Protein>
6NUR|6NUR_protein|mol2

> <Gold.PLP.Fitness>
41.1012

> <Gold.PLP.PLP>
-36.0825

> <Gold.PLP.part.hbond>
-1.0000

> <Gold.PLP.part.metal>
0.0000

> <Gold.PLP.part.buried>
-6.1494

> <Gold.PLP.part.nonpolar>
-29.4883

> <Gold.PLP.part.repulsive>
0.2953

> <Gold.PLP.ligand.clash>
0.0000

> <Gold.PLP.ligand.torsion>
0.4918

> <Gold.PLP.Chemscore.Hbond>
2.0000

> <Gold.PLP.Chemscore.CHOScore>
0.0000

> <Gold.PLP.Chemscore.Metal>
0.0000

> <Gold.Chemscore.Hbonds>
donor molecule, donor type, donor heavy atom, donor atom, acceptor molecule, acceptor atom, score
      L1  H    10    45       P1  8028  2.00

> <Gold.PLP.Chemscore.Internal.Correction>
0.0023

> <Gold.Rescore>
     Score         DG    S(hbond)    S(metal)    S(lipo)     H(rot)  DE(clash)    DE(int)     intcor
     16.73     -17.12       1.00        0.00     100.47       1.35       0.01       0.38       ----

> <Gold.Chemscore.Fitness>
16.7281

> <Gold.Chemscore.DG>
-17.1160

> <Gold.Chemscore.ZeroCoef>
-5.4800

> <Gold.Chemscore.Hbond>
0.9966

> <Gold.Chemscore.Metal>
0.0000

> <Gold.Chemscore.Lipo>
100.4657

> <Gold.Chemscore.Internal_Hbond>
0.0000

> <Gold.Chemscore.DEClash>
0.0063

> <Gold.Chemscore.DEInternal>
0.3817

> <Gold.Chemscore.Rot>
1.3465

> <Gold.Chemscore.Internal.Correction>
   9.000000E+99

> <Gold.Chemscore.Hbonds>
donor molecule, donor type, donor heavy atom, donor atom, acceptor molecule, acceptor atom, score
      L1  H    10    45       P1  8028  1.00

> <Gold.Chemscore.Hbond.Weighted>
-3.3286

> <Gold.Chemscore.Metal.Weighted>
-0.0000

> <Gold.Chemscore.Lipo.Weighted>
-11.7545

> <Gold.Chemscore.Internal_Hbond.Weighted>
0.0000

> <Gold.Chemscore.DEClash.Weighted>
0.0063

> <Gold.Chemscore.DEInternal.Weighted>
0.3817

> <Gold.Chemscore.Rot.Weighted>
3.4470

> <Gold.Chemscore.Internal.Correction.Weighted>
   9.000000E+99

> <Gold.Protein.RotatedTorsions>
[ 6907 6896 6895 6894 ] final  -86.93 input  -60.11 | X-H torsion
[ 7974 7965 7964 7962 ] final  -99.97 input  175.53 | X-H torsion
[ 8008 7997 7996 7995 ] final  178.31 input   59.86 | X-H torsion
[ 10167 10162 10161 10158 ] final -122.95 input  -65.29 | X-H torsion
[ 10718 10713 10712 10709 ] final   -2.31 input   66.30 | X-H torsion
[ 10763 10752 10751 10750 ] final   52.87 input  -60.55 | X-H torsion
[ 11005 11000 10999 10996 ] final   95.24 input  -57.11 | X-H torsion

> <Gold.Protein.ActiveResidues>
 VAL166  LYS551  ARG553  GLY616  TRP617  ASP618  TYR619  PRO620  LYS621  CYS622 
 ASP623  PHE694  ASN695  SER759  ASP760  ASP761  ALA762  ILE779  LEU786  VAL792 
 PHE793  MET794  SER795  GLU796  ALA797  LYS798  CYS799  TRP800  GLU811  SER814 

> <Gold.Protein.RotatedAtoms>
  150.6866  134.2974  159.4691 H   0  0  0  0  0  0  0  0  0  0  0  0  # atno 6907 bound_to 6896
  152.0873  134.9428  160.0582 H   0  0  0  0  0  0  0  0  0  0  0  0  # atno 6908 bound_to 6896
  152.0758  133.4094  159.4516 H   0  0  0  0  0  0  0  0  0  0  0  0  # atno 6909 bound_to 6896
  145.3006  140.9376  143.2825 H   0  0  0  0  0  0  0  0  0  0  0  0  # atno 7974 bound_to 7965
  156.0560  140.1336  156.9996 H   0  0  0  0  0  0  0  0  0  0  0  0  # atno 8008 bound_to 7997
  154.4458  140.1001  156.6517 H   0  0  0  0  0  0  0  0  0  0  0  0  # atno 8009 bound_to 7997
  155.5450  140.3461  155.4457 H   0  0  0  0  0  0  0  0  0  0  0  0  # atno 8010 bound_to 7997
  140.0087  143.5464  152.2272 H   0  0  0  0  0  0  0  0  0  0  0  0  # atno 10167 bound_to 10162
  156.7927  130.5367  149.5733 H   0  0  0  0  0  0  0  0  0  0  0  0  # atno 10718 bound_to 10713
  152.9791  135.5798  154.4649 H   0  0  0  0  0  0  0  0  0  0  0  0  # atno 10763 bound_to 10752
  154.4220  135.2772  155.1971 H   0  0  0  0  0  0  0  0  0  0  0  0  # atno 10764 bound_to 10752
  154.3716  135.6166  153.5797 H   0  0  0  0  0  0  0  0  0  0  0  0  # atno 10765 bound_to 10752
  139.8791  134.8888  156.3982 H   0  0  0  0  0  0  0  0  0  0  0  0  # atno 11005 bound_to 11000
  144.9096  139.4545  143.6593 LP  0  0  0  0  0  0  0  0  0  0  0  0  # atno 17320 bound_to 7965
  146.3153  139.7897  142.8988 LP  0  0  0  0  0  0  0  0  0  0  0  0  # atno 17321 bound_to 7965
  139.6220  144.7631  151.2719 LP  0  0  0  0  0  0  0  0  0  0  0  0  # atno 17342 bound_to 10162
  140.7390  143.6631  150.8147 LP  0  0  0  0  0  0  0  0  0  0  0  0  # atno 17343 bound_to 10162
  156.1149  130.6068  151.0105 LP  0  0  0  0  0  0  0  0  0  0  0  0  # atno 17370 bound_to 10713
  157.6593  131.0884  150.7876 LP  0  0  0  0  0  0  0  0  0  0  0  0  # atno 17371 bound_to 10713
  140.9285  133.7595  155.9995 LP  0  0  0  0  0  0  0  0  0  0  0  0  # atno 17394 bound_to 11000
  140.8358  134.3125  157.5332 LP  0  0  0  0  0  0  0  0  0  0  0  0  # atno 17395 bound_to 11000

$$$$
