AV-unprocessed.smi:232|AV-procd|sdf|1770|dock6
  -GOLD-   2262020313D 1   1.00000     0.00000
 Structure written by MMmdl.
 52 55  0  0  0  0  0  0  0  0  1 V2000
  150.8794  145.0030  158.7952 C   0  0  0  0  0  0  0  0  0  0  0  0
  150.7052  143.4840  158.9176 C   0  0  0  0  0  0  0  0  0  0  0  0
  152.0363  142.7418  159.1688 C   0  0  1  0  0  0  0  0  0  0  0  0
  152.9148  143.4186  160.2392 C   0  0  0  0  0  0  0  0  0  0  0  0
  153.3303  142.3004  161.2021 C   0  0  0  0  0  0  0  0  0  0  0  0
  152.9945  141.0046  160.4626 C   0  0  2  0  0  0  0  0  0  0  0  0
  154.1919  140.4976  159.6317 C   0  0  0  0  0  0  0  0  0  0  0  0
  151.8432  141.3715  159.6445 N   0  0  0  0  0  0  0  0  0  0  0  0
  151.3296  140.4085  158.8326 C   0  0  0  0  0  0  0  0  0  0  0  0
  151.1624  139.1427  159.3013 N   0  0  0  0  0  0  0  0  0  0  0  0
  150.6383  138.1941  158.5204 C   0  0  0  0  0  0  0  0  0  0  0  0
  150.2170  138.2914  157.2585 N   0  0  0  0  0  0  0  0  0  0  0  0
  150.3827  139.5575  156.7803 C   0  0  0  0  0  0  0  0  0  0  0  0
  150.9255  140.6653  157.4915 C   0  0  0  0  0  0  0  0  0  0  0  0
  150.9414  141.7883  156.6716 N   0  0  0  0  0  0  0  0  0  0  0  0
  150.4268  141.3718  155.5469 C   0  0  0  0  0  0  0  0  0  0  0  0
  150.0634  140.0451  155.5255 N   0  0  0  0  0  0  0  0  0  0  0  0
  149.4697  139.3262  154.4115 C   0  0  0  0  0  0  0  0  0  0  0  0
  147.9850  138.9786  154.6543 C   0  0  2  0  0  0  0  0  0  0  0  0
  147.5385  138.1629  153.5875 O   0  0  0  0  0  0  0  0  0  0  0  0
  147.0756  140.2226  154.7074 C   0  0  2  0  0  0  0  0  0  0  0  0
  147.1824  141.1487  153.4949 C   0  0  0  0  0  0  0  0  0  0  0  0
  146.7047  142.4873  154.0307 C   0  0  0  0  0  0  0  0  0  0  0  0
  146.8835  142.3585  155.5455 C   0  0  0  0  0  0  0  0  0  0  0  0
  147.5015  141.0938  155.7446 O   0  0  0  0  0  0  0  0  0  0  0  0
  149.9230  145.4874  158.5967 H   0  0  0  0  0  0  0  0  0  0  0  0
  151.5545  145.2546  157.9768 H   0  0  0  0  0  0  0  0  0  0  0  0
  151.2846  145.4358  159.7098 H   0  0  0  0  0  0  0  0  0  0  0  0
  150.0003  143.2590  159.7187 H   0  0  0  0  0  0  0  0  0  0  0  0
  150.2383  143.1254  158.0006 H   0  0  0  0  0  0  0  0  0  0  0  0
  152.6031  142.7016  158.2374 H   0  0  0  0  0  0  0  0  0  0  0  0
  153.7875  143.8754  159.7714 H   0  0  0  0  0  0  0  0  0  0  0  0
  152.3866  144.2041  160.7811 H   0  0  0  0  0  0  0  0  0  0  0  0
  154.3758  142.3672  161.5047 H   0  0  0  0  0  0  0  0  0  0  0  0
  152.7249  142.3642  162.1074 H   0  0  0  0  0  0  0  0  0  0  0  0
  152.7188  140.2440  161.1924 H   0  0  0  0  0  0  0  0  0  0  0  0
  155.0475  140.2888  160.2740 H   0  0  0  0  0  0  0  0  0  0  0  0
  154.5084  141.2291  158.8877 H   0  0  0  0  0  0  0  0  0  0  0  0
  153.9509  139.5725  159.1072 H   0  0  0  0  0  0  0  0  0  0  0  0
  150.5404  137.2183  158.9724 H   0  0  0  0  0  0  0  0  0  0  0  0
  150.2956  142.0252  154.6968 H   0  0  0  0  0  0  0  0  0  0  0  0
  149.5786  139.9464  153.5215 H   0  0  0  0  0  0  0  0  0  0  0  0
  150.0485  138.4195  154.2299 H   0  0  0  0  0  0  0  0  0  0  0  0
  147.8954  138.4169  155.5852 H   0  0  0  0  0  0  0  0  0  0  0  0
  148.2408  137.5816  153.3395 H   0  0  0  0  0  0  0  0  0  0  0  0
  146.0320  139.9415  154.8642 H   0  0  0  0  0  0  0  0  0  0  0  0
  148.2230  141.2338  153.1785 H   0  0  0  0  0  0  0  0  0  0  0  0
  146.5970  140.8034  152.6423 H   0  0  0  0  0  0  0  0  0  0  0  0
  147.2834  143.3129  153.6150 H   0  0  0  0  0  0  0  0  0  0  0  0
  145.6549  142.6541  153.7868 H   0  0  0  0  0  0  0  0  0  0  0  0
  147.4975  143.1568  155.9629 H   0  0  0  0  0  0  0  0  0  0  0  0
  145.9164  142.3730  156.0500 H   0  0  0  0  0  0  0  0  0  0  0  0
  1  2  1  0  0  0  0
  1 26  1  0  0  0  0
  1 27  1  0  0  0  0
  1 28  1  0  0  0  0
  2  3  1  0  0  0  0
  2 29  1  0  0  0  0
  2 30  1  0  0  0  0
  3  8  1  0  0  0  0
  3  4  1  0  0  0  0
  3 31  1  0  0  0  0
  4  5  1  0  0  0  0
  4 32  1  0  0  0  0
  4 33  1  0  0  0  0
  5  6  1  0  0  0  0
  5 34  1  0  0  0  0
  5 35  1  0  0  0  0
  6  7  1  0  0  0  0
  6  8  1  0  0  0  0
  6 36  1  0  0  0  0
  7 37  1  0  0  0  0
  7 38  1  0  0  0  0
  7 39  1  0  0  0  0
  8  9  1  0  0  0  0
  9 14  1  0  0  0  0
  9 10  2  0  0  0  0
 10 11  1  0  0  0  0
 11 12  2  0  0  0  0
 11 40  1  0  0  0  0
 12 13  1  0  0  0  0
 13 17  1  0  0  0  0
 13 14  2  0  0  0  0
 14 15  1  0  0  0  0
 15 16  2  0  0  0  0
 16 17  1  0  0  0  0
 16 41  1  0  0  0  0
 17 18  1  0  0  0  0
 18 19  1  0  0  0  0
 18 42  1  0  0  0  0
 18 43  1  0  0  0  0
 19 20  1  0  0  0  0
 19 21  1  0  0  0  0
 19 44  1  0  0  0  0
 20 45  1  0  0  0  0
 21 25  1  0  0  0  0
 21 22  1  0  0  0  0
 21 46  1  0  0  0  0
 22 23  1  0  0  0  0
 22 47  1  0  0  0  0
 22 48  1  0  0  0  0
 23 24  1  0  0  0  0
 23 49  1  0  0  0  0
 23 50  1  0  0  0  0
 24 25  1  0  0  0  0
 24 51  1  0  0  0  0
 24 52  1  0  0  0  0
M  END
> <s_m_source_file>
AV-unprocessed.smi

> <i_m_source_file_index>
232

> <i_lp_mmshare_version>
43012

> <i_f3d_flags>
0

> <s_epik_input>
W0NIM11bQ0gyXVtDQEBIXTFbQ0gyXVtDSDJdW0NAQEhdKFtDSDNdKU4xYyhuW2NIXW4yKWMoYzIzKW5bY0hdbjNbQ0gyXVtDQEhdKFtPSF0pW0NAQEhdNFtDSDJdW0NIMl1bQ0gyXU80

> <s_epik_cmdline>
J2VwaWtfcHl0aG9uJywgJy1waCcsICc3LjAnLCAnLXRuJywgJzgnLCAnLW1hJywgJzIwMCcsICctbWV0YWxfYmluZGluZycsICctaW1hZScsICc8aW5maWxlLm1hZT4nLCAnLW9tYWUnLCAnPG91dGZpbGUubWFlPic=

> <r_lp_tautomer_probability>
1

> <r_epik_Ionization_Penalty>
0.00258048

> <r_epik_Ionization_Penalty_Charging>
0

> <r_epik_Ionization_Penalty_Neutral>
0.00258048

> <r_epik_State_Penalty>
0.00168551

> <r_epik_Charging_Adjusted_Penalty>
0.00168551

> <i_epik_Tot_Q>
0

> <i_epik_Tot_abs_Q>
0

> <r_epik_Metal_State_Penalty>
-0

> <b_epik_Metal_Only>
0

> <s_lp_Force_Field>
OPLS_2005

> <r_lp_Energy>
53.6071

> <b_lp_Chiralities_Consistent>
1

> <s_lp_Variant>
AV-unprocessed.smi:232-4

> <Gold.Version>
5.8.1

> <Gold.Id.Protein>
6NUR|6NUR_protein|mol2

> <Gold.PLP.Fitness>
45.4150

> <Gold.PLP.PLP>
-43.3517

> <Gold.PLP.part.hbond>
-1.1905

> <Gold.PLP.part.metal>
0.0000

> <Gold.PLP.part.buried>
-5.5174

> <Gold.PLP.part.nonpolar>
-36.2405

> <Gold.PLP.part.repulsive>
0.1270

> <Gold.PLP.ligand.clash>
0.0000

> <Gold.PLP.ligand.torsion>
0.4860

> <Gold.PLP.Chemscore.Hbond>
0.9040

> <Gold.PLP.Chemscore.CHOScore>
0.0000

> <Gold.PLP.Chemscore.Metal>
0.0000

> <Gold.Chemscore.Hbonds>
donor molecule, donor type, donor heavy atom, donor atom, acceptor molecule, acceptor atom, score
      L1  H    20    45       P1  7948  0.71

> <Gold.PLP.Chemscore.Internal.Correction>
0.3233

> <Gold.Rescore>
     Score         DG    S(hbond)    S(metal)    S(lipo)     H(rot)  DE(clash)    DE(int)     intcor
      9.99     -14.34       0.86        0.00     104.38       2.43       0.01       4.34       ----

> <Gold.Chemscore.Fitness>
9.9930

> <Gold.Chemscore.DG>
-14.3445

> <Gold.Chemscore.ZeroCoef>
-5.4800

> <Gold.Chemscore.Hbond>
0.8572

> <Gold.Chemscore.Metal>
0.0000

> <Gold.Chemscore.Lipo>
104.3757

> <Gold.Chemscore.Internal_Hbond>
0.0000

> <Gold.Chemscore.DEClash>
0.0093

> <Gold.Chemscore.DEInternal>
4.3421

> <Gold.Chemscore.Rot>
2.4260

> <Gold.Chemscore.Internal.Correction>
   9.000000E+99

> <Gold.Chemscore.Hbonds>
donor molecule, donor type, donor heavy atom, donor atom, acceptor molecule, acceptor atom, score
      L1  H    20    45       P1  7948  0.69

> <Gold.Chemscore.Hbond.Weighted>
-2.8632

> <Gold.Chemscore.Metal.Weighted>
-0.0000

> <Gold.Chemscore.Lipo.Weighted>
-12.2120

> <Gold.Chemscore.Internal_Hbond.Weighted>
0.0000

> <Gold.Chemscore.DEClash.Weighted>
0.0093

> <Gold.Chemscore.DEInternal.Weighted>
4.3421

> <Gold.Chemscore.Rot.Weighted>
6.2107

> <Gold.Chemscore.Internal.Correction.Weighted>
   9.000000E+99

> <Gold.Protein.RotatedTorsions>
[ 6907 6896 6895 6894 ] final  174.66 input  -60.11 | X-H torsion
[ 7974 7965 7964 7962 ] final -174.39 input  175.53 | X-H torsion
[ 8008 7997 7996 7995 ] final  135.47 input   59.86 | X-H torsion
[ 10167 10162 10161 10158 ] final  112.82 input  -65.29 | X-H torsion
[ 10718 10713 10712 10709 ] final  163.53 input   66.30 | X-H torsion
[ 10763 10752 10751 10750 ] final   48.60 input  -60.55 | X-H torsion
[ 11005 11000 10999 10996 ] final  -86.54 input  -57.11 | X-H torsion

> <Gold.Protein.ActiveResidues>
 VAL166  LYS551  ARG553  GLY616  TRP617  ASP618  TYR619  PRO620  LYS621  CYS622 
 ASP623  PHE694  ASN695  SER759  ASP760  ASP761  ALA762  ILE779  LEU786  VAL792 
 PHE793  MET794  SER795  GLU796  ALA797  LYS798  CYS799  TRP800  GLU811  SER814 

> <Gold.Protein.RotatedAtoms>
  151.7488  133.3326  159.3385 H   0  0  0  0  0  0  0  0  0  0  0  0  # atno 6907 bound_to 6896
  150.7544  134.6211  159.6146 H   0  0  0  0  0  0  0  0  0  0  0  0  # atno 6908 bound_to 6896
  152.3482  134.7044  160.0295 H   0  0  0  0  0  0  0  0  0  0  0  0  # atno 6909 bound_to 6896
  144.7132  140.1479  143.6386 H   0  0  0  0  0  0  0  0  0  0  0  0  # atno 7974 bound_to 7965
  156.3003  140.2470  156.3587 H   0  0  0  0  0  0  0  0  0  0  0  0  # atno 8008 bound_to 7997
  154.8898  140.0409  157.1851 H   0  0  0  0  0  0  0  0  0  0  0  0  # atno 8009 bound_to 7997
  154.8610  140.2920  155.5543 H   0  0  0  0  0  0  0  0  0  0  0  0  # atno 8010 bound_to 7997
  139.6507  144.7128  151.2054 H   0  0  0  0  0  0  0  0  0  0  0  0  # atno 10167 bound_to 10162
  157.1072  131.0458  151.2472 H   0  0  0  0  0  0  0  0  0  0  0  0  # atno 10718 bound_to 10713
  152.9791  135.5939  154.3953 H   0  0  0  0  0  0  0  0  0  0  0  0  # atno 10763 bound_to 10752
  154.3604  135.2767  155.2325 H   0  0  0  0  0  0  0  0  0  0  0  0  # atno 10764 bound_to 10752
  154.4324  135.6033  153.6132 H   0  0  0  0  0  0  0  0  0  0  0  0  # atno 10765 bound_to 10752
  141.1628  133.7460  156.9177 H   0  0  0  0  0  0  0  0  0  0  0  0  # atno 11005 bound_to 11000
  145.9143  139.2506  143.1419 LP  0  0  0  0  0  0  0  0  0  0  0  0  # atno 17320 bound_to 7965
  145.9685  140.8779  143.0174 LP  0  0  0  0  0  0  0  0  0  0  0  0  # atno 17321 bound_to 7965
  140.7536  143.6155  150.8564 LP  0  0  0  0  0  0  0  0  0  0  0  0  # atno 17342 bound_to 10162
  139.9802  143.5959  152.2945 LP  0  0  0  0  0  0  0  0  0  0  0  0  # atno 17343 bound_to 10162
  157.4590  130.7642  149.7219 LP  0  0  0  0  0  0  0  0  0  0  0  0  # atno 17370 bound_to 10713
  155.9859  130.3979  150.3239 LP  0  0  0  0  0  0  0  0  0  0  0  0  # atno 17371 bound_to 10713
  140.1473  134.9254  157.2546 LP  0  0  0  0  0  0  0  0  0  0  0  0  # atno 17394 bound_to 11000
  140.2764  134.3400  155.7357 LP  0  0  0  0  0  0  0  0  0  0  0  0  # atno 17395 bound_to 11000

$$$$
