AV-unprocessed.smi:2157|AV-procd|sdf|8786|dock2
  -GOLD-   2272011563D 1   1.00000     0.00000
 Structure written by MMmdl.
 41 42  0  0  0  0  0  0  0  0  1 V2000
  146.3309  133.3822  150.6488 C   0  0  0  0  0  0  0  0  0  0  0  0
  146.0248  134.6248  151.4968 C   0  0  1  0  0  0  0  0  0  0  0  0
  144.5181  134.9467  151.5002 C   0  0  0  0  0  0  0  0  0  0  0  0
  144.2075  136.1893  152.3494 C   0  0  0  0  0  0  0  0  0  0  0  0
  144.7324  136.0316  153.7870 C   0  0  0  0  0  0  0  0  0  0  0  0
  146.2350  135.6921  153.8241 C   0  0  2  0  0  0  0  0  0  0  0  0
  147.0261  136.8540  153.4217 N   0  0  0  0  0  0  0  0  0  0  0  0
  147.0542  138.0362  154.0549 C   0  0  0  0  0  0  0  0  0  0  0  0
  146.4048  138.2726  155.0747 O   0  0  0  0  0  0  0  0  0  0  0  0
  147.9799  139.0989  153.4477 C   0  0  0  0  0  0  0  0  0  0  0  0
  149.2370  139.2635  154.1889 N   0  0  0  0  0  0  0  0  0  0  0  0
  150.1870  138.2589  154.1568 C   0  0  0  0  0  0  0  0  0  0  0  0
  151.3612  138.3226  154.8215 C   0  0  0  0  0  0  0  0  0  0  0  0
  151.7019  139.4882  155.6276 C   0  0  0  0  0  0  0  0  0  0  0  0
  152.7499  139.5808  156.2680 O   0  0  0  0  0  0  0  0  0  0  0  0
  150.7212  140.5082  155.6302 N   0  0  0  0  0  0  0  0  0  0  0  0
  150.9789  141.6901  156.4268 C   0  0  0  0  0  0  0  0  0  0  0  0
  149.4850  140.4267  154.9492 C   0  0  0  0  0  0  0  0  0  0  0  0
  148.6413  141.3244  155.0121 O   0  0  0  0  0  0  0  0  0  0  0  0
  146.5446  134.4634  152.9406 C   0  0  0  0  0  0  0  0  0  0  0  0
  145.8363  132.4968  151.0495 H   0  0  0  0  0  0  0  0  0  0  0  0
  147.4022  133.1810  150.6201 H   0  0  0  0  0  0  0  0  0  0  0  0
  145.9935  133.5158  149.6208 H   0  0  0  0  0  0  0  0  0  0  0  0
  146.5477  135.4659  151.0391 H   0  0  0  0  0  0  0  0  0  0  0  0
  144.1681  135.1060  150.4795 H   0  0  0  0  0  0  0  0  0  0  0  0
  143.9593  134.0939  151.8881 H   0  0  0  0  0  0  0  0  0  0  0  0
  144.6543  137.0698  151.8865 H   0  0  0  0  0  0  0  0  0  0  0  0
  143.1319  136.3658  152.3667 H   0  0  0  0  0  0  0  0  0  0  0  0
  144.5348  136.9385  154.3600 H   0  0  0  0  0  0  0  0  0  0  0  0
  144.1754  135.2348  154.2816 H   0  0  0  0  0  0  0  0  0  0  0  0
  146.4943  135.4510  154.8567 H   0  0  0  0  0  0  0  0  0  0  0  0
  147.5966  136.7482  152.5953 H   0  0  0  0  0  0  0  0  0  0  0  0
  148.1915  138.8140  152.4162 H   0  0  0  0  0  0  0  0  0  0  0  0
  147.4544  140.0539  153.3865 H   0  0  0  0  0  0  0  0  0  0  0  0
  149.9790  137.3719  153.5763 H   0  0  0  0  0  0  0  0  0  0  0  0
  152.0566  137.4986  154.7586 H   0  0  0  0  0  0  0  0  0  0  0  0
  150.4838  142.5509  155.9758 H   0  0  0  0  0  0  0  0  0  0  0  0
  152.0508  141.8920  156.4436 H   0  0  0  0  0  0  0  0  0  0  0  0
  150.5944  141.4870  157.4273 H   0  0  0  0  0  0  0  0  0  0  0  0
  146.0827  133.5830  153.3899 H   0  0  0  0  0  0  0  0  0  0  0  0
  147.6173  134.2656  152.9334 H   0  0  0  0  0  0  0  0  0  0  0  0
  1  2  1  0  0  0  0
  1 21  1  0  0  0  0
  1 22  1  0  0  0  0
  1 23  1  0  0  0  0
  2 20  1  0  0  0  0
  2  3  1  0  0  0  0
  2 24  1  0  0  0  0
  3  4  1  0  0  0  0
  3 25  1  0  0  0  0
  3 26  1  0  0  0  0
  4  5  1  0  0  0  0
  4 27  1  0  0  0  0
  4 28  1  0  0  0  0
  5  6  1  0  0  0  0
  5 29  1  0  0  0  0
  5 30  1  0  0  0  0
  6  7  1  0  0  0  0
  6 20  1  0  0  0  0
  6 31  1  0  0  0  0
  7  8  1  0  0  0  0
  7 32  1  0  0  0  0
  8  9  2  0  0  0  0
  8 10  1  0  0  0  0
 10 11  1  0  0  0  0
 10 33  1  0  0  0  0
 10 34  1  0  0  0  0
 11 18  1  0  0  0  0
 11 12  1  0  0  0  0
 12 13  2  0  0  0  0
 12 35  1  0  0  0  0
 13 14  1  0  0  0  0
 13 36  1  0  0  0  0
 14 15  2  0  0  0  0
 14 16  1  0  0  0  0
 16 17  1  0  0  0  0
 16 18  1  0  0  0  0
 17 37  1  0  0  0  0
 17 38  1  0  0  0  0
 17 39  1  0  0  0  0
 18 19  2  0  0  0  0
 20 40  1  0  0  0  0
 20 41  1  0  0  0  0
M  END
> <s_m_source_file>
AV-unprocessed.smi

> <i_m_source_file_index>
2157

> <i_lp_mmshare_version>
43012

> <i_f3d_flags>
0

> <s_epik_input>
W0NIM11bQ0BASF0xW0NIMl1bQ0gyXVtDSDJdW0NASF0oW0NIMl0xKVtOSF1DKD1PKVtDSDJdbjJbY0hdW2NIXWMoPU8pbihbQ0gzXSljMj1P

> <s_epik_cmdline>
J2VwaWtfcHl0aG9uJywgJy1waCcsICc3LjAnLCAnLXRuJywgJzgnLCAnLW1hJywgJzIwMCcsICctbWV0YWxfYmluZGluZycsICctaW1hZScsICc8aW5maWxlLm1hZT4nLCAnLW9tYWUnLCAnPG91dGZpbGUubWFlPic=

> <r_lp_tautomer_probability>
1

> <r_epik_Ionization_Penalty>
3.1838e-08

> <r_epik_Ionization_Penalty_Charging>
1.27911e-08

> <r_epik_Ionization_Penalty_Neutral>
1.90469e-08

> <r_epik_State_Penalty>
-0

> <r_epik_Charging_Adjusted_Penalty>
1.27911e-08

> <i_epik_Tot_Q>
0

> <i_epik_Tot_abs_Q>
0

> <r_epik_Metal_State_Penalty>
-0

> <b_epik_Metal_Only>
0

> <s_lp_Force_Field>
OPLS_2005

> <r_lp_Energy>
16.1054

> <b_lp_Chiralities_Consistent>
1

> <s_lp_Variant>
AV-unprocessed.smi:2157-4

> <Gold.Version>
5.8.1

> <Gold.Id.Protein>
6NUR|6NUR_protein|mol2

> <Gold.PLP.Fitness>
40.8159

> <Gold.PLP.PLP>
-32.4665

> <Gold.PLP.part.hbond>
-2.0000

> <Gold.PLP.part.metal>
0.0000

> <Gold.PLP.part.buried>
-0.8455

> <Gold.PLP.part.nonpolar>
-29.6764

> <Gold.PLP.part.repulsive>
0.1843

> <Gold.PLP.ligand.clash>
0.0000

> <Gold.PLP.ligand.torsion>
0.3310

> <Gold.PLP.Chemscore.Hbond>
2.0000

> <Gold.PLP.Chemscore.CHOScore>
1.0000

> <Gold.PLP.Chemscore.Metal>
0.0000

> <Gold.Chemscore.Hbonds>
donor molecule, donor type, donor heavy atom, donor atom, acceptor molecule, acceptor atom, score
      L1  H     7    32       P1  7948  1.00
      P1  H  7997  8008       L1    15  1.00
      L1  C    12    35       P1  7948  1.00
      L1  C    12    35       P1  7949  0.01

> <Gold.PLP.Chemscore.Internal.Correction>
0.0113

> <Gold.Rescore>
     Score         DG    S(hbond)    S(metal)    S(lipo)     H(rot)  DE(clash)    DE(int)     intcor
     14.22     -14.63       1.99        0.00      54.65       1.52       0.02       0.38       ----

> <Gold.Chemscore.Fitness>
14.2226

> <Gold.Chemscore.DG>
-14.6267

> <Gold.Chemscore.ZeroCoef>
-5.4800

> <Gold.Chemscore.Hbond>
1.9926

> <Gold.Chemscore.Metal>
0.0000

> <Gold.Chemscore.Lipo>
54.6451

> <Gold.Chemscore.Internal_Hbond>
0.0000

> <Gold.Chemscore.DEClash>
0.0226

> <Gold.Chemscore.DEInternal>
0.3815

> <Gold.Chemscore.Rot>
1.5242

> <Gold.Chemscore.Internal.Correction>
   9.000000E+99

> <Gold.Chemscore.Hbonds>
donor molecule, donor type, donor heavy atom, donor atom, acceptor molecule, acceptor atom, score
      L1  H     7    32       P1  7948  0.95
      P1  H  7997  8008       L1    15  1.00

> <Gold.Chemscore.Hbond.Weighted>
-6.6551

> <Gold.Chemscore.Metal.Weighted>
-0.0000

> <Gold.Chemscore.Lipo.Weighted>
-6.3935

> <Gold.Chemscore.Internal_Hbond.Weighted>
0.0000

> <Gold.Chemscore.DEClash.Weighted>
0.0226

> <Gold.Chemscore.DEInternal.Weighted>
0.3815

> <Gold.Chemscore.Rot.Weighted>
3.9019

> <Gold.Chemscore.Internal.Correction.Weighted>
   9.000000E+99

> <Gold.Protein.RotatedTorsions>
[ 6907 6896 6895 6894 ] final  -88.08 input  -60.11 | X-H torsion
[ 7974 7965 7964 7962 ] final  -44.70 input  175.53 | X-H torsion
[ 8008 7997 7996 7995 ] final  -34.99 input   59.86 | X-H torsion
[ 10167 10162 10161 10158 ] final  -82.90 input  -65.29 | X-H torsion
[ 10718 10713 10712 10709 ] final -102.78 input   66.30 | X-H torsion
[ 10763 10752 10751 10750 ] final  -27.05 input  -60.55 | X-H torsion
[ 11005 11000 10999 10996 ] final  -77.44 input  -57.11 | X-H torsion

> <Gold.Protein.ActiveResidues>
 VAL166  LYS551  ARG553  GLY616  TRP617  ASP618  TYR619  PRO620  LYS621  CYS622 
 ASP623  PHE694  ASN695  SER759  ASP760  ASP761  ALA762  ILE779  LEU786  VAL792 
 PHE793  MET794  SER795  GLU796  ALA797  LYS798  CYS799  TRP800  GLU811  SER814 

> <Gold.Protein.RotatedAtoms>
  150.6867  134.2797  159.4621 H   0  0  0  0  0  0  0  0  0  0  0  0  # atno 6907 bound_to 6896
  152.0712  134.9530  160.0583 H   0  0  0  0  0  0  0  0  0  0  0  0  # atno 6908 bound_to 6896
  152.0919  133.4170  159.4584 H   0  0  0  0  0  0  0  0  0  0  0  0  # atno 6909 bound_to 6896
  145.9895  140.7197  142.9324 H   0  0  0  0  0  0  0  0  0  0  0  0  # atno 7974 bound_to 7965
  154.4106  140.1669  156.2138 H   0  0  0  0  0  0  0  0  0  0  0  0  # atno 8008 bound_to 7997
  155.9421  140.3407  155.6313 H   0  0  0  0  0  0  0  0  0  0  0  0  # atno 8009 bound_to 7997
  155.6976  140.0741  157.2414 H   0  0  0  0  0  0  0  0  0  0  0  0  # atno 8010 bound_to 7997
  140.4277  143.2560  151.8803 H   0  0  0  0  0  0  0  0  0  0  0  0  # atno 10167 bound_to 10162
  156.0241  130.5436  150.7158 H   0  0  0  0  0  0  0  0  0  0  0  0  # atno 10718 bound_to 10713
  153.7258  135.6942  153.5001 H   0  0  0  0  0  0  0  0  0  0  0  0  # atno 10763 bound_to 10752
  153.2171  135.4383  155.0445 H   0  0  0  0  0  0  0  0  0  0  0  0  # atno 10764 bound_to 10752
  154.8269  135.3451  154.6790 H   0  0  0  0  0  0  0  0  0  0  0  0  # atno 10765 bound_to 10752
  141.1660  133.7022  156.7820 H   0  0  0  0  0  0  0  0  0  0  0  0  # atno 11005 bound_to 11000
  144.6884  140.3045  143.7258 LP  0  0  0  0  0  0  0  0  0  0  0  0  # atno 17320 bound_to 7965
  145.7651  139.1838  143.2244 LP  0  0  0  0  0  0  0  0  0  0  0  0  # atno 17321 bound_to 7965
  139.4784  144.5369  151.8585 LP  0  0  0  0  0  0  0  0  0  0  0  0  # atno 17342 bound_to 10162
  140.4463  144.1917  150.5894 LP  0  0  0  0  0  0  0  0  0  0  0  0  # atno 17343 bound_to 10162
  157.4785  131.0900  151.0563 LP  0  0  0  0  0  0  0  0  0  0  0  0  # atno 17370 bound_to 10713
  157.1003  130.5979  149.5459 LP  0  0  0  0  0  0  0  0  0  0  0  0  # atno 17371 bound_to 10713
  140.2387  134.8630  157.3551 LP  0  0  0  0  0  0  0  0  0  0  0  0  # atno 17394 bound_to 11000
  140.1817  134.4481  155.7768 LP  0  0  0  0  0  0  0  0  0  0  0  0  # atno 17395 bound_to 11000

$$$$
