AV-unprocessed.smi:72|AV-procd|sdf|673|dock1
  -GOLD-   2262016583D 1   1.00000     0.00000
 Structure written by MMmdl.
 29 30  0  0  0  0  0  0  0  0  1 V2000
  153.2391  138.8678  159.2362 N   0  0  0  0  0  0  0  0  0  0  0  0
  152.5337  139.0577  158.1784 C   0  0  0  0  0  0  0  0  0  0  0  0
  151.7854  140.2111  157.8985 N   0  0  0  0  0  0  0  0  0  0  0  0
  151.1190  140.2678  156.7865 C   0  0  0  0  0  0  0  0  0  0  0  0
  151.1196  139.1736  155.8252 N   0  0  0  0  0  0  0  0  0  0  0  0
  150.3429  139.2324  154.5210 C   0  0  2  0  0  0  0  0  0  0  0  0
  149.8079  140.5118  154.3374 O   0  0  0  0  0  0  0  0  0  0  0  0
  148.3960  140.4859  154.5259 C   0  0  1  0  0  0  0  0  0  0  0  0
  147.7189  141.6772  153.8263 C   0  0  0  0  0  0  0  0  0  0  0  0
  148.4293  142.8657  154.1003 O   0  0  0  0  0  0  0  0  0  0  0  0
  148.0066  139.0989  154.0004 C   0  0  1  0  0  0  0  0  0  0  0  0
  147.9137  139.0944  152.5871 O   0  0  0  0  0  0  0  0  0  0  0  0
  149.1672  138.2255  154.4584 C   0  0  2  0  0  0  0  0  0  0  0  0
  148.8517  137.6300  155.7054 O   0  0  0  0  0  0  0  0  0  0  0  0
  151.8684  138.0023  156.0953 C   0  0  0  0  0  0  0  0  0  0  0  0
  151.8938  137.0445  155.3227 O   0  0  0  0  0  0  0  0  0  0  0  0
  152.5470  137.9972  157.2627 N   0  0  0  0  0  0  0  0  0  0  0  0
  151.0831  139.0740  153.7349 H   0  0  0  0  0  0  0  0  0  0  0  0
  148.1778  140.5101  155.5951 H   0  0  0  0  0  0  0  0  0  0  0  0
  147.0471  138.7669  154.4000 H   0  0  0  0  0  0  0  0  0  0  0  0
  149.3976  137.4315  153.7468 H   0  0  0  0  0  0  0  0  0  0  0  0
  153.1831  139.6687  159.8480 H   0  0  0  0  0  0  0  0  0  0  0  0
  150.5228  141.1369  156.5099 H   0  0  0  0  0  0  0  0  0  0  0  0
  147.6476  141.5194  152.7497 H   0  0  0  0  0  0  0  0  0  0  0  0
  146.7051  141.8091  154.2057 H   0  0  0  0  0  0  0  0  0  0  0  0
  148.5504  142.9354  155.0351 H   0  0  0  0  0  0  0  0  0  0  0  0
  148.7583  139.3211  152.2295 H   0  0  0  0  0  0  0  0  0  0  0  0
  148.5833  136.7374  155.5498 H   0  0  0  0  0  0  0  0  0  0  0  0
  153.0896  137.1747  157.4815 H   0  0  0  0  0  0  0  0  0  0  0  0
  1  2  2  0  0  0  0
  1 22  1  0  0  0  0
  2 17  1  0  0  0  0
  2  3  1  0  0  0  0
  3  4  2  0  0  0  0
  4  5  1  0  0  0  0
  4 23  1  0  0  0  0
  5  6  1  0  0  0  0
  5 15  1  0  0  0  0
  6 18  1  0  0  0  0
  6 13  1  0  0  0  0
  6  7  1  0  0  0  0
  7  8  1  0  0  0  0
  8 19  1  0  0  0  0
  8  9  1  0  0  0  0
  8 11  1  0  0  0  0
  9 10  1  0  0  0  0
  9 24  1  0  0  0  0
  9 25  1  0  0  0  0
 10 26  1  0  0  0  0
 11 20  1  0  0  0  0
 11 12  1  0  0  0  0
 11 13  1  0  0  0  0
 12 27  1  0  0  0  0
 13 21  1  0  0  0  0
 13 14  1  0  0  0  0
 14 28  1  0  0  0  0
 15 16  2  0  0  0  0
 15 17  1  0  0  0  0
 17 29  1  0  0  0  0
M  END
> <s_m_source_file>
AV-unprocessed.smi

> <i_m_source_file_index>
72

> <i_lp_mmshare_version>
43012

> <i_f3d_flags>
0

> <s_epik_input>
W05IMl1jMW5bY0hdbihjKD1PKW4xKVtDQEBIXTJPW0NASF0oW0NIMl1bT0hdKVtDQEBIXShbT0hdKVtDQEhdMltPSF0=

> <s_epik_cmdline>
J2VwaWtfcHl0aG9uJywgJy1waCcsICc3LjAnLCAnLXRuJywgJzgnLCAnLW1hJywgJzIwMCcsICctbWV0YWxfYmluZGluZycsICctaW1hZScsICc8aW5maWxlLm1hZT4nLCAnLW9tYWUnLCAnPG91dGZpbGUubWFlPic=

> <r_lp_tautomer_probability>
7.17554e-07

> <r_epik_Ionization_Penalty>
0.0066451

> <r_epik_Ionization_Penalty_Charging>
0.00663793

> <r_epik_Ionization_Penalty_Neutral>
7.17052e-06

> <r_epik_State_Penalty>
0.419231

> <r_epik_Charging_Adjusted_Penalty>
0.425868

> <i_epik_Tot_Q>
0

> <i_epik_Tot_abs_Q>
0

> <r_epik_Metal_State_Penalty>
1.44144

> <b_epik_Metal_Only>
0

> <s_epik_Chemistry_Notes>
This compound contains an acetal/aminal-like group ( X-CH(R)-Y where X, Y are N, S, or O) that may be acid/base labile, releasing an aldehyde.

> <s_lp_Force_Field>
OPLS_2005

> <r_lp_Energy>
44.6425

> <b_lp_Chiralities_Consistent>
1

> <s_lp_Variant>
AV-unprocessed.smi:72-11

> <Gold.Version>
5.8.1

> <Gold.Id.Protein>
6NUR|6NUR_protein|mol2

> <Gold.PLP.Fitness>
34.2683

> <Gold.PLP.PLP>
-24.3777

> <Gold.PLP.part.hbond>
-5.9592

> <Gold.PLP.part.metal>
0.0000

> <Gold.PLP.part.buried>
-4.0417

> <Gold.PLP.part.nonpolar>
-14.7884

> <Gold.PLP.part.repulsive>
0.3027

> <Gold.PLP.ligand.clash>
0.0000

> <Gold.PLP.ligand.torsion>
0.2303

> <Gold.PLP.Chemscore.Hbond>
3.4208

> <Gold.PLP.Chemscore.CHOScore>
0.0000

> <Gold.PLP.Chemscore.Metal>
0.0000

> <Gold.Chemscore.Hbonds>
donor molecule, donor type, donor heavy atom, donor atom, acceptor molecule, acceptor atom, score
      L1  H    10    26       P1  8028  0.27
      L1  H    12    27       P1  7957  0.99
      P1  H  7989  7998       L1     7  0.16
      P1  H  8022  8030       L1    10  1.00
      P1  H 10752 10765       L1    16  1.00

> <Gold.PLP.Chemscore.Internal.Correction>
0.0889

> <Gold.Rescore>
     Score         DG    S(hbond)    S(metal)    S(lipo)     H(rot)  DE(clash)    DE(int)     intcor
      7.41      -7.78       2.97        0.00      23.72       4.06       0.16       0.21       ----

> <Gold.Chemscore.Fitness>
7.4097

> <Gold.Chemscore.DG>
-7.7770

> <Gold.Chemscore.ZeroCoef>
-5.4800

> <Gold.Chemscore.Hbond>
2.9688

> <Gold.Chemscore.Metal>
0.0000

> <Gold.Chemscore.Lipo>
23.7155

> <Gold.Chemscore.Internal_Hbond>
0.0000

> <Gold.Chemscore.DEClash>
0.1615

> <Gold.Chemscore.DEInternal>
0.2058

> <Gold.Chemscore.Rot>
4.0600

> <Gold.Chemscore.Internal.Correction>
   9.000000E+99

> <Gold.Chemscore.Hbonds>
donor molecule, donor type, donor heavy atom, donor atom, acceptor molecule, acceptor atom, score
      L1  H    10    26       P1  8028  0.26
      L1  H    12    27       P1  7957  0.87
      P1  H  8022  8030       L1    10  0.24
      P1  H 10752 10765       L1    16  0.96

> <Gold.Chemscore.Hbond.Weighted>
-9.9159

> <Gold.Chemscore.Metal.Weighted>
-0.0000

> <Gold.Chemscore.Lipo.Weighted>
-2.7747

> <Gold.Chemscore.Internal_Hbond.Weighted>
0.0000

> <Gold.Chemscore.DEClash.Weighted>
0.1615

> <Gold.Chemscore.DEInternal.Weighted>
0.2058

> <Gold.Chemscore.Rot.Weighted>
10.3936

> <Gold.Chemscore.Internal.Correction.Weighted>
   9.000000E+99

> <Gold.Protein.RotatedTorsions>
[ 6907 6896 6895 6894 ] final -128.57 input  -60.11 | X-H torsion
[ 7974 7965 7964 7962 ] final  112.68 input  175.53 | X-H torsion
[ 8008 7997 7996 7995 ] final  -62.22 input   59.86 | X-H torsion
[ 10167 10162 10161 10158 ] final  126.14 input  -65.29 | X-H torsion
[ 10718 10713 10712 10709 ] final  150.32 input   66.30 | X-H torsion
[ 10763 10752 10751 10750 ] final -172.44 input  -60.55 | X-H torsion
[ 11005 11000 10999 10996 ] final  -83.25 input  -57.11 | X-H torsion

> <Gold.Protein.ActiveResidues>
 VAL166  LYS551  ARG553  GLY616  TRP617  ASP618  TYR619  PRO620  LYS621  CYS622 
 ASP623  PHE694  ASN695  SER759  ASP760  ASP761  ALA762  ILE779  LEU786  VAL792 
 PHE793  MET794  SER795  GLU796  ALA797  LYS798  CYS799  TRP800  GLU811  SER814 

> <Gold.Protein.RotatedAtoms>
  150.9193  133.6900  159.2835 H   0  0  0  0  0  0  0  0  0  0  0  0  # atno 6907 bound_to 6896
  151.4360  135.1014  159.9666 H   0  0  0  0  0  0  0  0  0  0  0  0  # atno 6908 bound_to 6896
  152.4971  133.8612  159.7306 H   0  0  0  0  0  0  0  0  0  0  0  0  # atno 6909 bound_to 6896
  145.2265  139.2838  143.4190 H   0  0  0  0  0  0  0  0  0  0  0  0  # atno 7974 bound_to 7965
  154.4488  140.1001  156.6553 H   0  0  0  0  0  0  0  0  0  0  0  0  # atno 8008 bound_to 7997
  155.5353  140.3482  155.4416 H   0  0  0  0  0  0  0  0  0  0  0  0  # atno 8009 bound_to 7997
  156.0636  140.1332  156.9901 H   0  0  0  0  0  0  0  0  0  0  0  0  # atno 8010 bound_to 7997
  139.5647  144.6904  151.3944 H   0  0  0  0  0  0  0  0  0  0  0  0  # atno 10167 bound_to 10162
  157.2849  131.0842  151.1504 H   0  0  0  0  0  0  0  0  0  0  0  0  # atno 10718 bound_to 10713
  154.6193  135.2873  155.0345 H   0  0  0  0  0  0  0  0  0  0  0  0  # atno 10763 bound_to 10752
  154.1546  135.6498  153.4975 H   0  0  0  0  0  0  0  0  0  0  0  0  # atno 10764 bound_to 10752
  153.0228  135.5363  154.6976 H   0  0  0  0  0  0  0  0  0  0  0  0  # atno 10765 bound_to 10752
  141.1659  133.7285  156.8692 H   0  0  0  0  0  0  0  0  0  0  0  0  # atno 11005 bound_to 11000
  146.3363  140.2587  142.8601 LP  0  0  0  0  0  0  0  0  0  0  0  0  # atno 17320 bound_to 7965
  144.9716  140.8374  143.5452 LP  0  0  0  0  0  0  0  0  0  0  0  0  # atno 17321 bound_to 7965
  140.6929  143.7817  150.7283 LP  0  0  0  0  0  0  0  0  0  0  0  0  # atno 17342 bound_to 10162
  140.1305  143.4530  152.2257 LP  0  0  0  0  0  0  0  0  0  0  0  0  # atno 17343 bound_to 10162
  157.2924  130.6802  149.6121 LP  0  0  0  0  0  0  0  0  0  0  0  0  # atno 17370 bound_to 10713
  155.9665  130.4417  150.5350 LP  0  0  0  0  0  0  0  0  0  0  0  0  # atno 17371 bound_to 10713
  140.1794  134.9044  157.2930 LP  0  0  0  0  0  0  0  0  0  0  0  0  # atno 17394 bound_to 11000
  140.2412  134.3793  155.7480 LP  0  0  0  0  0  0  0  0  0  0  0  0  # atno 17395 bound_to 11000

$$$$
