AV-unprocessed.smi:1737|AV-procd|sdf|6995|dock5
  -GOLD-   22720 8213D 1   1.00000     0.00000
 Structure written by MMmdl.
 43 44  0  0  0  0  0  0  0  0  2 V2000
  147.5377  132.9809  152.4955 C   0  0  0  0  0  0  0  0  0  0  0  0
  146.3505  133.0728  151.5507 C   0  0  0  0  0  0  0  0  0  0  0  0
  145.8628  131.8982  150.9390 C   0  0  0  0  0  0  0  0  0  0  0  0
  144.7644  131.9842  150.0667 C   0  0  0  0  0  0  0  0  0  0  0  0
  144.1964  133.2497  149.8413 C   0  0  0  0  0  0  0  0  0  0  0  0
  144.6557  134.3772  150.4216 N   0  0  0  0  0  0  0  0  0  0  0  0
  145.7149  134.3115  151.2669 C   0  0  0  0  0  0  0  0  0  0  0  0
  146.2559  135.4611  151.9093 N   0  0  0  0  0  0  0  0  0  0  0  0
  145.6262  136.3521  152.6952 C   0  0  0  0  0  0  0  0  0  0  0  0
  144.4419  136.3005  153.0292 O   0  0  0  0  0  0  0  0  0  0  0  0
  146.4562  137.3300  153.0863 N   0  0  0  0  0  0  0  0  0  0  0  0
  146.0749  138.4450  153.9484 C   0  0  0  0  0  0  0  0  0  0  0  0
  146.8318  139.7592  153.6171 C   0  0  2  0  0  0  0  0  0  0  0  0
  147.0928  139.8530  152.0941 C   0  0  0  0  0  0  0  0  0  0  0  0
  148.0766  139.8628  154.4466 N   0  3  0  0  0  0  0  0  0  0  0  0
  149.1203  138.8354  154.1764 C   0  0  0  0  0  0  0  0  0  0  0  0
  150.3331  139.0204  155.1050 C   0  0  0  0  0  0  0  0  0  0  0  0
  150.8606  140.3305  154.9590 O   0  0  0  0  0  0  0  0  0  0  0  0
  149.9066  141.3191  155.3173 C   0  0  0  0  0  0  0  0  0  0  0  0
  148.6899  141.2179  154.3836 C   0  0  0  0  0  0  0  0  0  0  0  0
  147.9070  131.9577  152.5711 H   0  0  0  0  0  0  0  0  0  0  0  0
  147.2542  133.3096  153.4959 H   0  0  0  0  0  0  0  0  0  0  0  0
  148.3577  133.6073  152.1428 H   0  0  0  0  0  0  0  0  0  0  0  0
  146.3235  130.9407  151.1335 H   0  0  0  0  0  0  0  0  0  0  0  0
  144.3683  131.1039  149.5828 H   0  0  0  0  0  0  0  0  0  0  0  0
  143.3521  133.3612  149.1770 H   0  0  0  0  0  0  0  0  0  0  0  0
  147.2370  135.6266  151.7408 H   0  0  0  0  0  0  0  0  0  0  0  0
  147.4150  137.3002  152.7708 H   0  0  0  0  0  0  0  0  0  0  0  0
  144.9946  138.5658  153.8790 H   0  0  0  0  0  0  0  0  0  0  0  0
  146.2780  138.1544  154.9797 H   0  0  0  0  0  0  0  0  0  0  0  0
  146.1984  140.6091  153.8766 H   0  0  0  0  0  0  0  0  0  0  0  0
  146.1725  139.7473  151.5203 H   0  0  0  0  0  0  0  0  0  0  0  0
  147.7781  139.0744  151.7573 H   0  0  0  0  0  0  0  0  0  0  0  0
  147.5061  140.8204  151.8089 H   0  0  0  0  0  0  0  0  0  0  0  0
  148.7318  137.8312  154.3442 H   0  0  0  0  0  0  0  0  0  0  0  0
  149.4348  138.8969  153.1332 H   0  0  0  0  0  0  0  0  0  0  0  0
  150.0580  138.8400  156.1455 H   0  0  0  0  0  0  0  0  0  0  0  0
  151.1103  138.2984  154.8534 H   0  0  0  0  0  0  0  0  0  0  0  0
  149.6105  141.2019  156.3610 H   0  0  0  0  0  0  0  0  0  0  0  0
  150.3685  142.3024  155.2262 H   0  0  0  0  0  0  0  0  0  0  0  0
  148.9963  141.4316  153.3583 H   0  0  0  0  0  0  0  0  0  0  0  0
  147.9747  141.9891  154.6629 H   0  0  0  0  0  0  0  0  0  0  0  0
  147.7890  139.7150  155.4035 H   0  0  0  0  0  0  0  0  0  0  0  0
  1  2  1  0  0  0  0
  1 21  1  0  0  0  0
  1 22  1  0  0  0  0
  1 23  1  0  0  0  0
  2  7  1  0  0  0  0
  2  3  2  0  0  0  0
  3  4  1  0  0  0  0
  3 24  1  0  0  0  0
  4  5  2  0  0  0  0
  4 25  1  0  0  0  0
  5  6  1  0  0  0  0
  5 26  1  0  0  0  0
  6  7  2  0  0  0  0
  7  8  1  0  0  0  0
  8  9  1  0  0  0  0
  8 27  1  0  0  0  0
  9 10  2  0  0  0  0
  9 11  1  0  0  0  0
 11 12  1  0  0  0  0
 11 28  1  0  0  0  0
 12 13  1  0  0  0  0
 12 29  1  0  0  0  0
 12 30  1  0  0  0  0
 13 14  1  0  0  0  0
 13 15  1  0  0  0  0
 13 31  1  0  0  0  0
 14 32  1  0  0  0  0
 14 33  1  0  0  0  0
 14 34  1  0  0  0  0
 15 20  1  0  0  0  0
 15 16  1  0  0  0  0
 15 43  1  0  0  0  0
 16 17  1  0  0  0  0
 16 35  1  0  0  0  0
 16 36  1  0  0  0  0
 17 18  1  0  0  0  0
 17 37  1  0  0  0  0
 17 38  1  0  0  0  0
 18 19  1  0  0  0  0
 19 20  1  0  0  0  0
 19 39  1  0  0  0  0
 19 40  1  0  0  0  0
 20 41  1  0  0  0  0
 20 42  1  0  0  0  0
M  CHG  1  15   1
M  END
> <s_m_source_file>
AV-unprocessed.smi

> <i_m_source_file_index>
1737

> <i_lp_mmshare_version>
43012

> <i_f3d_flags>
0

> <s_epik_input>
W0NIM11jMVtjSF1bY0hdW2NIXW5jMVtOSF1DKD1PKVtOSF1bQ0gyXVtDQEhdKFtDSDNdKU4yW0NIMl1bQ0gyXU9bQ0gyXVtDSDJdMg==

> <s_epik_cmdline>
J2VwaWtfcHl0aG9uJywgJy1waCcsICc3LjAnLCAnLXRuJywgJzgnLCAnLW1hJywgJzIwMCcsICctbWV0YWxfYmluZGluZycsICctaW1hZScsICc8aW5maWxlLm1hZT4nLCAnLW9tYWUnLCAnPG91dGZpbGUubWFlPic=

> <r_epik_Ionization_Penalty>
0.602573

> <r_epik_Ionization_Penalty_Charging>
0.602531

> <r_epik_Ionization_Penalty_Neutral>
4.25912e-05

> <r_epik_State_Penalty>
0.617039

> <r_epik_Charging_Adjusted_Penalty>
1.21957

> <i_epik_Tot_Q>
1

> <i_epik_Tot_abs_Q>
1

> <r_epik_Metal_State_Penalty>
0.617042

> <b_epik_Metal_Only>
0

> <s_lp_Force_Field>
OPLS_2005

> <r_lp_Energy>
21.8503

> <b_lp_Chiralities_Consistent>
1

> <s_lp_Variant>
AV-unprocessed.smi:1737-3

> <Gold.Version>
5.8.1

> <Gold.Id.Protein>
6NUR|6NUR_protein|mol2

> <Gold.PLP.Fitness>
44.8125

> <Gold.PLP.PLP>
-35.0077

> <Gold.PLP.part.hbond>
-3.0000

> <Gold.PLP.part.metal>
0.0000

> <Gold.PLP.part.buried>
-1.7993

> <Gold.PLP.part.nonpolar>
-31.1743

> <Gold.PLP.part.repulsive>
0.6491

> <Gold.PLP.ligand.clash>
0.0000

> <Gold.PLP.ligand.torsion>
1.1073

> <Gold.PLP.Chemscore.Hbond>
2.9920

> <Gold.PLP.Chemscore.CHOScore>
1.0000

> <Gold.PLP.Chemscore.Metal>
0.0000

> <Gold.Chemscore.Hbonds>
donor molecule, donor type, donor heavy atom, donor atom, acceptor molecule, acceptor atom, score
      L1  H     8    27       P1  7948  1.00
      L1  H    11    28       P1  7948  0.87
      P1  H  7989  7998       L1    18  1.00
      L1  C     5    26       P1 10186  0.84

> <Gold.PLP.Chemscore.Internal.Correction>
0.0434

> <Gold.Rescore>
     Score         DG    S(hbond)    S(metal)    S(lipo)     H(rot)  DE(clash)    DE(int)     intcor
     18.16     -21.32       2.72        0.00      90.98       1.51       1.91       1.25       ----

> <Gold.Chemscore.Fitness>
18.1596

> <Gold.Chemscore.DG>
-21.3218

> <Gold.Chemscore.ZeroCoef>
-5.4800

> <Gold.Chemscore.Hbond>
2.7156

> <Gold.Chemscore.Metal>
0.0000

> <Gold.Chemscore.Lipo>
90.9768

> <Gold.Chemscore.Internal_Hbond>
0.0000

> <Gold.Chemscore.DEClash>
1.9110

> <Gold.Chemscore.DEInternal>
1.2511

> <Gold.Chemscore.Rot>
1.5128

> <Gold.Chemscore.Internal.Correction>
   9.000000E+99

> <Gold.Chemscore.Hbonds>
donor molecule, donor type, donor heavy atom, donor atom, acceptor molecule, acceptor atom, score
      L1  H     8    27       P1  7948  1.00
      L1  H    11    28       P1  7948  0.80
      P1  H  7989  7998       L1    18  0.59

> <Gold.Chemscore.Hbond.Weighted>
-9.0701

> <Gold.Chemscore.Metal.Weighted>
-0.0000

> <Gold.Chemscore.Lipo.Weighted>
-10.6443

> <Gold.Chemscore.Internal_Hbond.Weighted>
0.0000

> <Gold.Chemscore.DEClash.Weighted>
1.9110

> <Gold.Chemscore.DEInternal.Weighted>
1.2511

> <Gold.Chemscore.Rot.Weighted>
3.8726

> <Gold.Chemscore.Internal.Correction.Weighted>
   9.000000E+99

> <Gold.Protein.RotatedTorsions>
[ 6907 6896 6895 6894 ] final  -31.54 input  -60.11 | X-H torsion
[ 7974 7965 7964 7962 ] final -105.52 input  175.53 | X-H torsion
[ 8008 7997 7996 7995 ] final -119.82 input   59.86 | X-H torsion
[ 10167 10162 10161 10158 ] final  138.88 input  -65.29 | X-H torsion
[ 10718 10713 10712 10709 ] final  -33.84 input   66.30 | X-H torsion
[ 10763 10752 10751 10750 ] final   62.95 input  -60.55 | X-H torsion
[ 11005 11000 10999 10996 ] final   16.65 input  -57.11 | X-H torsion

> <Gold.Protein.ActiveResidues>
 VAL166  LYS551  ARG553  GLY616  TRP617  ASP618  TYR619  PRO620  LYS621  CYS622 
 ASP623  PHE694  ASN695  SER759  ASP760  ASP761  ALA762  ILE779  LEU786  VAL792 
 PHE793  MET794  SER795  GLU796  ALA797  LYS798  CYS799  TRP800  GLU811  SER814 

> <Gold.Protein.RotatedAtoms>
  151.0908  134.9915  159.8401 H   0  0  0  0  0  0  0  0  0  0  0  0  # atno 6907 bound_to 6896
  152.5429  134.2068  159.8744 H   0  0  0  0  0  0  0  0  0  0  0  0  # atno 6908 bound_to 6896
  151.2104  133.4515  159.2631 H   0  0  0  0  0  0  0  0  0  0  0  0  # atno 6909 bound_to 6896
  145.2294  140.9165  143.3213 H   0  0  0  0  0  0  0  0  0  0  0  0  # atno 7974 bound_to 7965
  155.1219  140.0399  157.2752 H   0  0  0  0  0  0  0  0  0  0  0  0  # atno 8008 bound_to 7997
  154.6607  140.2590  155.7086 H   0  0  0  0  0  0  0  0  0  0  0  0  # atno 8009 bound_to 7997
  156.2618  140.2817  156.1078 H   0  0  0  0  0  0  0  0  0  0  0  0  # atno 8010 bound_to 7997
  139.5096  144.6327  151.5775 H   0  0  0  0  0  0  0  0  0  0  0  0  # atno 10167 bound_to 10162
  156.3578  130.4319  149.7649 H   0  0  0  0  0  0  0  0  0  0  0  0  # atno 10718 bound_to 10713
  153.0000  135.5446  154.6274 H   0  0  0  0  0  0  0  0  0  0  0  0  # atno 10763 bound_to 10752
  154.5560  135.2830  155.0967 H   0  0  0  0  0  0  0  0  0  0  0  0  # atno 10764 bound_to 10752
  154.2188  135.6454  153.5190 H   0  0  0  0  0  0  0  0  0  0  0  0  # atno 10765 bound_to 10752
  140.4448  134.1285  155.7695 H   0  0  0  0  0  0  0  0  0  0  0  0  # atno 11005 bound_to 11000
  144.9691  139.3899  143.6318 LP  0  0  0  0  0  0  0  0  0  0  0  0  # atno 17320 bound_to 7965
  146.3357  139.8780  142.8829 LP  0  0  0  0  0  0  0  0  0  0  0  0  # atno 17321 bound_to 7965
  140.6066  143.9513  150.6423 LP  0  0  0  0  0  0  0  0  0  0  0  0  # atno 17342 bound_to 10162
  140.2742  143.3434  152.1210 LP  0  0  0  0  0  0  0  0  0  0  0  0  # atno 17343 bound_to 10162
  156.4825  130.8047  151.3061 LP  0  0  0  0  0  0  0  0  0  0  0  0  # atno 17370 bound_to 10713
  157.7469  131.0001  150.2914 LP  0  0  0  0  0  0  0  0  0  0  0  0  # atno 17371 bound_to 10713
  141.1690  133.8646  157.1628 LP  0  0  0  0  0  0  0  0  0  0  0  0  # atno 17394 bound_to 11000
  140.0046  135.0014  157.0264 LP  0  0  0  0  0  0  0  0  0  0  0  0  # atno 17395 bound_to 11000

$$$$
