AV-unprocessed.smi:1047|AV-procd|sdf|4565|dock7
  -GOLD-   22720 3 13D 1   1.00000     0.00000
 Structure written by MMmdl.
 57 59  0  0  0  0  0  0  0  0  3 V2000
  143.2472  132.8563  151.3287 C   0  0  0  0  0  0  0  0  0  0  0  0
  144.4152  133.3088  152.2163 C   0  0  0  0  0  0  0  0  0  0  0  0
  143.9677  134.1313  153.3720 N   0  3  2  0  0  0  0  0  0  0  0  0
  142.8330  135.0317  153.0531 C   0  0  0  0  0  0  0  0  0  0  0  0
  143.3111  136.2784  152.2880 C   0  0  0  0  0  0  0  0  0  0  0  0
  144.3060  136.9492  153.0525 O   0  0  0  0  0  0  0  0  0  0  0  0
  145.4626  136.1477  153.2730 C   0  0  1  0  0  0  0  0  0  0  0  0
  146.4842  136.9921  154.0500 C   0  0  0  0  0  0  0  0  0  0  0  0
  147.2483  137.8773  153.1478 N   0  3  0  0  0  0  0  0  0  0  0  0
  147.6390  139.1640  153.7568 C   0  0  0  0  0  0  0  0  0  0  0  0
  149.0556  139.0929  154.3578 C   0  0  1  0  0  0  0  0  0  0  0  0
  149.9535  138.6899  153.3417 O   0  0  0  0  0  0  0  0  0  0  0  0
  149.5389  140.4298  154.9616 C   0  0  0  0  0  0  0  0  0  0  0  0
  150.6510  140.2831  155.8869 N   0  0  0  0  0  0  0  0  0  0  0  0
  151.5914  139.3181  155.8807 C   0  0  0  0  0  0  0  0  0  0  0  0
  152.5307  139.3764  156.8199 N   0  0  0  0  0  0  0  0  0  0  0  0
  152.1521  140.5062  157.5238 C   0  0  0  0  0  0  0  0  0  0  0  0
  152.7372  141.1227  158.6511 C   0  0  0  0  0  0  0  0  0  0  0  0
  152.1731  142.2896  159.2137 C   0  0  0  0  0  0  0  0  0  0  0  0
  152.8351  142.9188  160.4269 C   0  0  0  0  0  0  0  0  0  0  0  0
  151.0034  142.8573  158.6479 C   0  0  0  0  0  0  0  0  0  0  0  0
  150.3782  144.1094  159.2371 C   0  0  0  0  0  0  0  0  0  0  0  0
  150.4053  142.2536  157.5222 C   0  0  0  0  0  0  0  0  0  0  0  0
  150.9776  141.0940  156.9694 C   0  0  0  0  0  0  0  0  0  0  0  0
  145.0481  134.8842  154.0609 C   0  0  0  0  0  0  0  0  0  0  0  0
  143.6188  132.3463  150.4397 H   0  0  0  0  0  0  0  0  0  0  0  0
  142.6530  133.7072  150.9944 H   0  0  0  0  0  0  0  0  0  0  0  0
  142.5839  132.1617  151.8429 H   0  0  0  0  0  0  0  0  0  0  0  0
  144.9958  132.4484  152.5485 H   0  0  0  0  0  0  0  0  0  0  0  0
  145.0849  133.9065  151.5965 H   0  0  0  0  0  0  0  0  0  0  0  0
  142.0634  134.5016  152.4906 H   0  0  0  0  0  0  0  0  0  0  0  0
  142.3670  135.3414  153.9896 H   0  0  0  0  0  0  0  0  0  0  0  0
  143.7017  136.0160  151.3037 H   0  0  0  0  0  0  0  0  0  0  0  0
  142.4758  136.9595  152.1247 H   0  0  0  0  0  0  0  0  0  0  0  0
  145.8993  135.8634  152.3144 H   0  0  0  0  0  0  0  0  0  0  0  0
  145.9793  137.5900  154.8103 H   0  0  0  0  0  0  0  0  0  0  0  0
  147.1861  136.3387  154.5699 H   0  0  0  0  0  0  0  0  0  0  0  0
  148.0835  137.3977  152.8443 H   0  0  0  0  0  0  0  0  0  0  0  0
  147.5766  139.9539  153.0066 H   0  0  0  0  0  0  0  0  0  0  0  0
  146.9192  139.4071  154.5392 H   0  0  0  0  0  0  0  0  0  0  0  0
  149.0787  138.3362  155.1430 H   0  0  0  0  0  0  0  0  0  0  0  0
  149.6096  138.9692  152.5062 H   0  0  0  0  0  0  0  0  0  0  0  0
  149.8472  141.1052  154.1627 H   0  0  0  0  0  0  0  0  0  0  0  0
  148.7199  140.9297  155.4811 H   0  0  0  0  0  0  0  0  0  0  0  0
  151.5902  138.5315  155.1402 H   0  0  0  0  0  0  0  0  0  0  0  0
  153.6275  140.6893  159.0828 H   0  0  0  0  0  0  0  0  0  0  0  0
  152.1420  142.9484  161.2678 H   0  0  0  0  0  0  0  0  0  0  0  0
  153.1532  143.9373  160.2033 H   0  0  0  0  0  0  0  0  0  0  0  0
  153.7145  142.3544  160.7387 H   0  0  0  0  0  0  0  0  0  0  0  0
  149.4952  144.4156  158.6754 H   0  0  0  0  0  0  0  0  0  0  0  0
  151.0885  144.9364  159.2207 H   0  0  0  0  0  0  0  0  0  0  0  0
  150.0739  143.9342  160.2691 H   0  0  0  0  0  0  0  0  0  0  0  0
  149.5127  142.6753  157.0848 H   0  0  0  0  0  0  0  0  0  0  0  0
  144.6744  135.1790  155.0425 H   0  0  0  0  0  0  0  0  0  0  0  0
  145.9106  134.2461  154.2488 H   0  0  0  0  0  0  0  0  0  0  0  0
  146.6786  138.0783  152.3375 H   0  0  0  0  0  0  0  0  0  0  0  0
  143.6083  133.4653  154.0417 H   0  0  0  0  0  0  0  0  0  0  0  0
  1  2  1  0  0  0  0
  1 26  1  0  0  0  0
  1 27  1  0  0  0  0
  1 28  1  0  0  0  0
  2  3  1  0  0  0  0
  2 29  1  0  0  0  0
  2 30  1  0  0  0  0
  3 25  1  0  0  0  0
  3  4  1  0  0  0  0
  3 57  1  0  0  0  0
  4  5  1  0  0  0  0
  4 31  1  0  0  0  0
  4 32  1  0  0  0  0
  5  6  1  0  0  0  0
  5 33  1  0  0  0  0
  5 34  1  0  0  0  0
  6  7  1  0  0  0  0
  7  8  1  0  0  0  0
  7 25  1  0  0  0  0
  7 35  1  0  0  0  0
  8  9  1  0  0  0  0
  8 36  1  0  0  0  0
  8 37  1  0  0  0  0
  9 10  1  0  0  0  0
  9 38  1  0  0  0  0
  9 56  1  0  0  0  0
 10 11  1  0  0  0  0
 10 39  1  0  0  0  0
 10 40  1  0  0  0  0
 11 12  1  0  0  0  0
 11 13  1  0  0  0  0
 11 41  1  0  0  0  0
 12 42  1  0  0  0  0
 13 14  1  0  0  0  0
 13 43  1  0  0  0  0
 13 44  1  0  0  0  0
 14 24  1  0  0  0  0
 14 15  1  0  0  0  0
 15 16  2  0  0  0  0
 15 45  1  0  0  0  0
 16 17  1  0  0  0  0
 17 24  2  0  0  0  0
 17 18  1  0  0  0  0
 18 19  2  0  0  0  0
 18 46  1  0  0  0  0
 19 20  1  0  0  0  0
 19 21  1  0  0  0  0
 20 47  1  0  0  0  0
 20 48  1  0  0  0  0
 20 49  1  0  0  0  0
 21 22  1  0  0  0  0
 21 23  2  0  0  0  0
 22 50  1  0  0  0  0
 22 51  1  0  0  0  0
 22 52  1  0  0  0  0
 23 24  1  0  0  0  0
 23 53  1  0  0  0  0
 25 54  1  0  0  0  0
 25 55  1  0  0  0  0
M  CHG  1   3   1
M  CHG  1   9   1
M  END
> <s_m_source_file>
AV-unprocessed.smi

> <i_m_source_file_index>
1047

> <i_lp_mmshare_version>
43012

> <i_f3d_flags>
0

> <s_epik_input>
W0NIM11bQ0gyXU4xW0NIMl1bQ0gyXU9bQ0BIXShbQ0gyXTEpW0NIMl1bTkhdW0NIMl1bQ0BIXShbT0hdKVtDSDJdbihbY0hdbjIpYyhjMjMpW2NIXWMoW0NIM10pYyhbY0hdMylbQ0gzXQ==

> <s_epik_cmdline>
J2VwaWtfcHl0aG9uJywgJy1waCcsICc3LjAnLCAnLXRuJywgJzgnLCAnLW1hJywgJzIwMCcsICctbWV0YWxfYmluZGluZycsICctaW1hZScsICc8aW5maWxlLm1hZT4nLCAnLW9tYWUnLCAnPG91dGZpbGUubWFlPic=

> <r_epik_Ionization_Penalty>
0.528991

> <r_epik_Ionization_Penalty_Charging>
0.438567

> <r_epik_Ionization_Penalty_Neutral>
0.0904237

> <r_epik_State_Penalty>
0.533036

> <r_epik_Charging_Adjusted_Penalty>
0.971603

> <i_epik_Tot_Q>
2

> <i_epik_Tot_abs_Q>
2

> <r_epik_Metal_State_Penalty>
0.448985

> <b_epik_Metal_Only>
0

> <s_lp_Force_Field>
OPLS_2005

> <r_lp_Energy>
30.0062

> <b_lp_Chiralities_Consistent>
1

> <s_lp_Variant>
AV-unprocessed.smi:1047-6

> <Gold.Version>
5.8.1

> <Gold.Id.Protein>
6NUR|6NUR_protein|mol2

> <Gold.PLP.Fitness>
57.3534

> <Gold.PLP.PLP>
-42.1397

> <Gold.PLP.part.hbond>
-5.0000

> <Gold.PLP.part.metal>
0.0000

> <Gold.PLP.part.buried>
-6.2233

> <Gold.PLP.part.nonpolar>
-32.1786

> <Gold.PLP.part.repulsive>
0.1716

> <Gold.PLP.ligand.clash>
0.0000

> <Gold.PLP.ligand.torsion>
1.3699

> <Gold.PLP.Chemscore.Hbond>
5.9325

> <Gold.PLP.Chemscore.CHOScore>
0.0000

> <Gold.PLP.Chemscore.Metal>
0.0000

> <Gold.Chemscore.Hbonds>
donor molecule, donor type, donor heavy atom, donor atom, acceptor molecule, acceptor atom, score
      L1  H     3    57       P1 10957  1.76
      L1  H     9    38       P1  7948  2.00
      L1  H    12    42       P1  7957  1.00
      P1  H  7997  8009       L1    16  0.68

> <Gold.PLP.Chemscore.Internal.Correction>
0.1560

> <Gold.Rescore>
     Score         DG    S(hbond)    S(metal)    S(lipo)     H(rot)  DE(clash)    DE(int)     intcor
     21.35     -22.71       3.56        0.00     104.78       2.70       0.13       1.23       ----

> <Gold.Chemscore.Fitness>
21.3486

> <Gold.Chemscore.DG>
-22.7129

> <Gold.Chemscore.ZeroCoef>
-5.4800

> <Gold.Chemscore.Hbond>
3.5574

> <Gold.Chemscore.Metal>
0.0000

> <Gold.Chemscore.Lipo>
104.7795

> <Gold.Chemscore.Internal_Hbond>
0.0000

> <Gold.Chemscore.DEClash>
0.1318

> <Gold.Chemscore.DEInternal>
1.2326

> <Gold.Chemscore.Rot>
2.6985

> <Gold.Chemscore.Internal.Correction>
   9.000000E+99

> <Gold.Chemscore.Hbonds>
donor molecule, donor type, donor heavy atom, donor atom, acceptor molecule, acceptor atom, score
      L1  H     3    57       P1 10957  0.85
      L1  H     9    38       P1  7948  0.98
      L1  H    12    42       P1  7957  0.82
      P1  H  7997  8009       L1    16  0.07

> <Gold.Chemscore.Hbond.Weighted>
-11.8819

> <Gold.Chemscore.Metal.Weighted>
-0.0000

> <Gold.Chemscore.Lipo.Weighted>
-12.2592

> <Gold.Chemscore.Internal_Hbond.Weighted>
0.0000

> <Gold.Chemscore.DEClash.Weighted>
0.1318

> <Gold.Chemscore.DEInternal.Weighted>
1.2326

> <Gold.Chemscore.Rot.Weighted>
6.9081

> <Gold.Chemscore.Internal.Correction.Weighted>
   9.000000E+99

> <Gold.Protein.RotatedTorsions>
[ 6907 6896 6895 6894 ] final -164.10 input  -60.11 | X-H torsion
[ 7974 7965 7964 7962 ] final  105.84 input  175.53 | X-H torsion
[ 8008 7997 7996 7995 ] final -153.24 input   59.86 | X-H torsion
[ 10167 10162 10161 10158 ] final  151.82 input  -65.29 | X-H torsion
[ 10718 10713 10712 10709 ] final -172.51 input   66.30 | X-H torsion
[ 10763 10752 10751 10750 ] final -166.55 input  -60.55 | X-H torsion
[ 11005 11000 10999 10996 ] final   35.79 input  -57.11 | X-H torsion

> <Gold.Protein.ActiveResidues>
 VAL166  LYS551  ARG553  GLY616  TRP617  ASP618  TYR619  PRO620  LYS621  CYS622 
 ASP623  PHE694  ASN695  SER759  ASP760  ASP761  ALA762  ILE779  LEU786  VAL792 
 PHE793  MET794  SER795  GLU796  ALA797  LYS798  CYS799  TRP800  GLU811  SER814 

> <Gold.Protein.RotatedAtoms>
  151.4065  133.3741  159.2738 H   0  0  0  0  0  0  0  0  0  0  0  0  # atno 6907 bound_to 6896
  150.9394  134.8806  159.7613 H   0  0  0  0  0  0  0  0  0  0  0  0  # atno 6908 bound_to 6896
  152.5064  134.4015  159.9470 H   0  0  0  0  0  0  0  0  0  0  0  0  # atno 6909 bound_to 6896
  145.3144  139.2531  143.3745 H   0  0  0  0  0  0  0  0  0  0  0  0  # atno 7974 bound_to 7965
  155.6678  140.0730  157.2531 H   0  0  0  0  0  0  0  0  0  0  0  0  # atno 8008 bound_to 7997
  154.4129  140.1704  156.1897 H   0  0  0  0  0  0  0  0  0  0  0  0  # atno 8009 bound_to 7997
  155.9643  140.3367  155.6521 H   0  0  0  0  0  0  0  0  0  0  0  0  # atno 8010 bound_to 7997
  139.4837  144.5409  151.7566 H   0  0  0  0  0  0  0  0  0  0  0  0  # atno 10167 bound_to 10162
  156.7567  130.9398  151.3116 H   0  0  0  0  0  0  0  0  0  0  0  0  # atno 10718 bound_to 10713
  154.6822  135.2956  154.9598 H   0  0  0  0  0  0  0  0  0  0  0  0  # atno 10763 bound_to 10752
  154.0589  135.6634  153.4813 H   0  0  0  0  0  0  0  0  0  0  0  0  # atno 10764 bound_to 10752
  153.0555  135.5147  154.7870 H   0  0  0  0  0  0  0  0  0  0  0  0  # atno 10765 bound_to 10752
  140.2391  134.3436  155.7933 H   0  0  0  0  0  0  0  0  0  0  0  0  # atno 11005 bound_to 11000
  146.3106  140.3688  142.8672 LP  0  0  0  0  0  0  0  0  0  0  0  0  # atno 17320 bound_to 7965
  144.8989  140.7618  143.5879 LP  0  0  0  0  0  0  0  0  0  0  0  0  # atno 17321 bound_to 7965
  140.4948  144.1257  150.5958 LP  0  0  0  0  0  0  0  0  0  0  0  0  # atno 17342 bound_to 10162
  140.4130  143.2648  151.9810 LP  0  0  0  0  0  0  0  0  0  0  0  0  # atno 17343 bound_to 10162
  157.6753  130.9088  150.0135 LP  0  0  0  0  0  0  0  0  0  0  0  0  # atno 17370 bound_to 10713
  156.1366  130.3642  149.9648 LP  0  0  0  0  0  0  0  0  0  0  0  0  # atno 17371 bound_to 10713
  141.2212  133.7288  156.8856 LP  0  0  0  0  0  0  0  0  0  0  0  0  # atno 17394 bound_to 11000
  140.1672  134.9125  157.2788 LP  0  0  0  0  0  0  0  0  0  0  0  0  # atno 17395 bound_to 11000

$$$$
