AV-unprocessed.smi:2775|AV-procd|sdf|10700|dock10
  -GOLD-   2272015143D 1   1.00000     0.00000
 Structure written by MMmdl.
 43 46  0  0  0  0  0  0  0  0  2 V2000
  144.7707  131.6608  150.8403 C   0  0  0  0  0  0  0  0  0  0  0  0
  145.9955  131.6207  151.7339 C   0  0  0  0  0  0  0  0  0  0  0  0
  146.4448  130.4095  152.1315 N   0  3  0  0  0  0  0  0  0  0  0  0
  147.5202  130.2493  152.9309 C   0  0  0  0  0  0  0  0  0  0  0  0
  148.2318  131.3766  153.3854 C   0  0  0  0  0  0  0  0  0  0  0  0
  147.8129  132.6702  152.9853 C   0  0  0  0  0  0  0  0  0  0  0  0
  148.4622  133.8597  153.4117 N   0  0  0  0  0  0  0  0  0  0  0  0
  149.4132  134.0045  154.3541 C   0  0  0  0  0  0  0  0  0  0  0  0
  149.8347  133.0975  155.0685 O   0  0  0  0  0  0  0  0  0  0  0  0
  149.9212  135.2472  154.4231 N   0  0  0  0  0  0  0  0  0  0  0  0
  150.9637  135.7316  155.3348 C   0  0  2  0  0  0  0  0  0  0  0  0
  150.6083  135.5931  156.8393 C   0  0  2  0  0  0  0  0  0  0  0  0
  149.4236  134.8080  157.3521 C   0  0  0  0  0  0  0  0  0  0  0  0
  148.3753  135.8950  157.6024 C   0  0  0  0  0  0  0  0  0  0  0  0
  148.7860  136.9898  156.7875 O   0  0  0  0  0  0  0  0  0  0  0  0
  150.2070  137.0633  156.8429 C   0  0  2  0  0  0  0  0  0  0  0  0
  150.9090  137.2606  155.4929 C   0  0  0  0  0  0  0  0  0  0  0  0
  150.3350  138.2083  154.4260 C   0  0  0  0  0  0  0  0  0  0  0  0
  151.3748  139.2447  154.8604 C   0  0  0  0  0  0  0  0  0  0  0  0
  152.1996  138.0923  155.4408 C   0  0  0  0  0  0  0  0  0  0  0  0
  146.6692  132.7904  152.1581 C   0  0  0  0  0  0  0  0  0  0  0  0
  146.1052  134.3507  151.6596 Cl  0  0  0  0  0  0  0  0  0  0  0  0
  144.9985  132.1746  149.9059 H   0  0  0  0  0  0  0  0  0  0  0  0
  143.9571  132.1913  151.3360 H   0  0  0  0  0  0  0  0  0  0  0  0
  144.4214  130.6565  150.5970 H   0  0  0  0  0  0  0  0  0  0  0  0
  147.7738  129.2306  153.1867 H   0  0  0  0  0  0  0  0  0  0  0  0
  149.0775  131.2313  154.0405 H   0  0  0  0  0  0  0  0  0  0  0  0
  148.2797  134.6773  152.8477 H   0  0  0  0  0  0  0  0  0  0  0  0
  149.6023  135.9091  153.7300 H   0  0  0  0  0  0  0  0  0  0  0  0
  151.9682  135.3788  155.0948 H   0  0  0  0  0  0  0  0  0  0  0  0
  151.5140  135.4420  157.4286 H   0  0  0  0  0  0  0  0  0  0  0  0
  149.0618  134.0765  156.6321 H   0  0  0  0  0  0  0  0  0  0  0  0
  149.6546  134.2673  158.2703 H   0  0  0  0  0  0  0  0  0  0  0  0
  147.3646  135.5696  157.3555 H   0  0  0  0  0  0  0  0  0  0  0  0
  148.3890  136.2068  158.6479 H   0  0  0  0  0  0  0  0  0  0  0  0
  150.5964  137.6343  157.6869 H   0  0  0  0  0  0  0  0  0  0  0  0
  150.5013  137.8535  153.4077 H   0  0  0  0  0  0  0  0  0  0  0  0
  149.2989  138.5090  154.5837 H   0  0  0  0  0  0  0  0  0  0  0  0
  151.8529  139.7832  154.0417 H   0  0  0  0  0  0  0  0  0  0  0  0
  150.9991  139.9230  155.6281 H   0  0  0  0  0  0  0  0  0  0  0  0
  152.6556  138.3002  156.4092 H   0  0  0  0  0  0  0  0  0  0  0  0
  152.9276  137.6991  154.7295 H   0  0  0  0  0  0  0  0  0  0  0  0
  145.9446  129.5777  151.8166 H   0  0  0  0  0  0  0  0  0  0  0  0
  1  2  1  0  0  0  0
  1 23  1  0  0  0  0
  1 24  1  0  0  0  0
  1 25  1  0  0  0  0
  2 21  1  0  0  0  0
  2  3  2  0  0  0  0
  3  4  1  0  0  0  0
  3 43  1  0  0  0  0
  4  5  2  0  0  0  0
  4 26  1  0  0  0  0
  5  6  1  0  0  0  0
  5 27  1  0  0  0  0
  6  7  1  0  0  0  0
  6 21  2  0  0  0  0
  7  8  1  0  0  0  0
  7 28  1  0  0  0  0
  8  9  2  0  0  0  0
  8 10  1  0  0  0  0
 10 11  1  0  0  0  0
 10 29  1  0  0  0  0
 11 17  1  0  0  0  0
 11 12  1  0  0  0  0
 11 30  1  0  0  0  0
 12 16  1  0  0  0  0
 12 13  1  0  0  0  0
 12 31  1  0  0  0  0
 13 14  1  0  0  0  0
 13 32  1  0  0  0  0
 13 33  1  0  0  0  0
 14 15  1  0  0  0  0
 14 34  1  0  0  0  0
 14 35  1  0  0  0  0
 15 16  1  0  0  0  0
 16 17  1  0  0  0  0
 16 36  1  0  0  0  0
 17 20  1  0  0  0  0
 17 18  1  0  0  0  0
 18 19  1  0  0  0  0
 18 37  1  0  0  0  0
 18 38  1  0  0  0  0
 19 20  1  0  0  0  0
 19 39  1  0  0  0  0
 19 40  1  0  0  0  0
 20 41  1  0  0  0  0
 20 42  1  0  0  0  0
 21 22  1  0  0  0  0
M  CHG  1   3   1
M  END
> <s_m_source_file>
AV-unprocessed.smi

> <i_m_source_file_index>
2775

> <i_lp_mmshare_version>
43012

> <i_f3d_flags>
0

> <s_epik_input>
W0NIM11jMW5bY0hdW2NIXWMoYzFDbClbTkhdQyg9TylbTkhdW0NAQEhdMltDQEhdKFtDSDJdW0NIMl1PMylbQ0BASF0zQzI0W0NIMl1bQ0gyXVtDSDJdNA==

> <s_epik_cmdline>
J2VwaWtfcHl0aG9uJywgJy1waCcsICc3LjAnLCAnLXRuJywgJzgnLCAnLW1hJywgJzIwMCcsICctbWV0YWxfYmluZGluZycsICctaW1hZScsICc8aW5maWxlLm1hZT4nLCAnLW9tYWUnLCAnPG91dGZpbGUubWFlPic=

> <r_epik_Ionization_Penalty>
2.4104

> <r_epik_Ionization_Penalty_Charging>
2.41038

> <r_epik_Ionization_Penalty_Neutral>
1.9872e-05

> <r_epik_State_Penalty>
2.56896

> <r_epik_Charging_Adjusted_Penalty>
4.97934

> <i_epik_Tot_Q>
1

> <i_epik_Tot_abs_Q>
1

> <r_epik_Metal_State_Penalty>
2.57906

> <b_epik_Metal_Only>
0

> <s_lp_Force_Field>
OPLS_2005

> <r_lp_Energy>
62.9708

> <b_lp_Chiralities_Consistent>
1

> <s_lp_Variant>
AV-unprocessed.smi:2775-13

> <Gold.Version>
5.8.1

> <Gold.Id.Protein>
6NUR|6NUR_protein|mol2

> <Gold.PLP.Fitness>
38.8801

> <Gold.PLP.PLP>
-33.0309

> <Gold.PLP.part.hbond>
-2.4696

> <Gold.PLP.part.metal>
0.0000

> <Gold.PLP.part.buried>
-2.3570

> <Gold.PLP.part.nonpolar>
-28.0569

> <Gold.PLP.part.repulsive>
0.0870

> <Gold.PLP.ligand.clash>
0.0000

> <Gold.PLP.ligand.torsion>
0.1788

> <Gold.PLP.Chemscore.Hbond>
2.0000

> <Gold.PLP.Chemscore.CHOScore>
0.0000

> <Gold.PLP.Chemscore.Metal>
0.0000

> <Gold.Chemscore.Hbonds>
donor molecule, donor type, donor heavy atom, donor atom, acceptor molecule, acceptor atom, score
      L1  H     7    28       P1  7948  0.98
      L1  H    10    29       P1  7948  0.94

> <Gold.PLP.Chemscore.Internal.Correction>
0.2068

> <Gold.Rescore>
     Score         DG    S(hbond)    S(metal)    S(lipo)     H(rot)  DE(clash)    DE(int)     intcor
     16.26     -17.69       1.37        0.00      87.05       1.00       0.03       1.40       ----

> <Gold.Chemscore.Fitness>
16.2553

> <Gold.Chemscore.DG>
-17.6856

> <Gold.Chemscore.ZeroCoef>
-5.4800

> <Gold.Chemscore.Hbond>
1.3715

> <Gold.Chemscore.Metal>
0.0000

> <Gold.Chemscore.Lipo>
87.0502

> <Gold.Chemscore.Internal_Hbond>
0.0000

> <Gold.Chemscore.DEClash>
0.0296

> <Gold.Chemscore.DEInternal>
1.4007

> <Gold.Chemscore.Rot>
1.0000

> <Gold.Chemscore.Internal.Correction>
   9.000000E+99

> <Gold.Chemscore.Hbonds>
donor molecule, donor type, donor heavy atom, donor atom, acceptor molecule, acceptor atom, score
      L1  H     7    28       P1  7948  0.51
      L1  H    10    29       P1  7948  0.31

> <Gold.Chemscore.Hbond.Weighted>
-4.5807

> <Gold.Chemscore.Metal.Weighted>
-0.0000

> <Gold.Chemscore.Lipo.Weighted>
-10.1849

> <Gold.Chemscore.Internal_Hbond.Weighted>
0.0000

> <Gold.Chemscore.DEClash.Weighted>
0.0296

> <Gold.Chemscore.DEInternal.Weighted>
1.4007

> <Gold.Chemscore.Rot.Weighted>
2.5600

> <Gold.Chemscore.Internal.Correction.Weighted>
   9.000000E+99

> <Gold.Protein.RotatedTorsions>
[ 6907 6896 6895 6894 ] final  -38.87 input  -60.11 | X-H torsion
[ 7974 7965 7964 7962 ] final   25.40 input  175.53 | X-H torsion
[ 8008 7997 7996 7995 ] final -104.34 input   59.86 | X-H torsion
[ 10167 10162 10161 10158 ] final  -40.02 input  -65.29 | X-H torsion
[ 10718 10713 10712 10709 ] final   88.41 input   66.30 | X-H torsion
[ 10763 10752 10751 10750 ] final  -54.40 input  -60.55 | X-H torsion
[ 11005 11000 10999 10996 ] final  160.06 input  -57.11 | X-H torsion

> <Gold.Protein.ActiveResidues>
 VAL166  LYS551  ARG553  GLY616  TRP617  ASP618  TYR619  PRO620  LYS621  CYS622 
 ASP623  PHE694  ASN695  SER759  ASP760  ASP761  ALA762  ILE779  LEU786  VAL792 
 PHE793  MET794  SER795  GLU796  ALA797  LYS798  CYS799  TRP800  GLU811  SER814 

> <Gold.Protein.RotatedAtoms>
  150.9972  134.9293  159.7932 H   0  0  0  0  0  0  0  0  0  0  0  0  # atno 6907 bound_to 6896
  152.5268  134.3203  159.9156 H   0  0  0  0  0  0  0  0  0  0  0  0  # atno 6908 bound_to 6896
  151.3209  133.3999  159.2689 H   0  0  0  0  0  0  0  0  0  0  0  0  # atno 6909 bound_to 6896
  146.1890  139.7470  142.8845 H   0  0  0  0  0  0  0  0  0  0  0  0  # atno 7974 bound_to 7965
  154.8838  140.0418  157.1798 H   0  0  0  0  0  0  0  0  0  0  0  0  # atno 8008 bound_to 7997
  154.8611  140.2944  155.5517 H   0  0  0  0  0  0  0  0  0  0  0  0  # atno 8009 bound_to 7997
  156.2998  140.2446  156.3585 H   0  0  0  0  0  0  0  0  0  0  0  0  # atno 8010 bound_to 7997
  140.7047  143.3178  151.2865 H   0  0  0  0  0  0  0  0  0  0  0  0  # atno 10167 bound_to 10162
  157.6949  131.0293  150.3270 H   0  0  0  0  0  0  0  0  0  0  0  0  # atno 10718 bound_to 10713
  154.1743  135.6454  153.5017 H   0  0  0  0  0  0  0  0  0  0  0  0  # atno 10763 bound_to 10752
  153.0076  135.5390  154.6581 H   0  0  0  0  0  0  0  0  0  0  0  0  # atno 10764 bound_to 10752
  154.5928  135.2936  155.0590 H   0  0  0  0  0  0  0  0  0  0  0  0  # atno 10765 bound_to 10752
  140.2023  134.8329  157.3031 H   0  0  0  0  0  0  0  0  0  0  0  0  # atno 11005 bound_to 11000
  145.3851  141.0364  143.3156 LP  0  0  0  0  0  0  0  0  0  0  0  0  # atno 17320 bound_to 7965
  144.8451  139.5410  143.6882 LP  0  0  0  0  0  0  0  0  0  0  0  0  # atno 17321 bound_to 7965
  139.6623  144.0167  152.2700 LP  0  0  0  0  0  0  0  0  0  0  0  0  # atno 17342 bound_to 10162
  139.9739  144.6475  150.7963 LP  0  0  0  0  0  0  0  0  0  0  0  0  # atno 17343 bound_to 10162
  156.3750  130.3870  149.7146 LP  0  0  0  0  0  0  0  0  0  0  0  0  # atno 17370 bound_to 10713
  156.4548  130.7924  151.2945 LP  0  0  0  0  0  0  0  0  0  0  0  0  # atno 17371 bound_to 10713
  140.2041  134.4219  155.7647 LP  0  0  0  0  0  0  0  0  0  0  0  0  # atno 17394 bound_to 11000
  141.2227  133.7086  156.8231 LP  0  0  0  0  0  0  0  0  0  0  0  0  # atno 17395 bound_to 11000

$$$$
