AV-unprocessed.smi:2937|AV-procd|sdf|11259|dock10
  -GOLD-   2272016153D 1   1.00000     0.00000
 Structure written by MMmdl.
 33 34  0  0  0  0  0  0  0  0  1 V2000
  153.4013  142.3172  161.4207 C   0  0  0  0  0  0  0  0  0  0  0  0
  153.0623  141.4301  160.3609 O   0  0  0  0  0  0  0  0  0  0  0  0
  152.1124  141.8357  159.4443 C   0  0  0  0  0  0  0  0  0  0  0  0
  151.5718  143.0733  159.5670 N   0  0  0  0  0  0  0  0  0  0  0  0
  150.6559  143.4245  158.6666 C   0  0  0  0  0  0  0  0  0  0  0  0
  150.1100  144.6775  158.8011 N   0  0  0  0  0  0  0  0  0  0  0  0
  150.2142  142.6878  157.6486 N   0  0  0  0  0  0  0  0  0  0  0  0
  150.7408  141.4478  157.4981 C   0  0  0  0  0  0  0  0  0  0  0  0
  150.3011  140.6752  156.4069 N   0  0  0  0  0  0  0  0  0  0  0  0
  149.4379  141.4105  155.4908 C   0  0  0  0  0  0  0  0  0  0  0  0
  149.2010  140.5842  154.2147 C   0  0  0  0  0  0  0  0  0  0  0  0
  148.6710  139.3071  154.5598 O   0  0  0  0  0  0  0  0  0  0  0  0
  149.5568  138.5668  155.3952 C   0  0  0  0  0  0  0  0  0  0  0  0
  149.7948  139.3388  156.7040 C   0  0  0  0  0  0  0  0  0  0  0  0
  151.7212  140.9594  158.4040 C   0  0  0  0  0  0  0  0  0  0  0  0
  152.3235  139.5634  158.3061 C   0  0  0  0  0  0  0  0  0  0  0  0
  152.9834  139.3414  157.0782 O   0  0  0  0  0  0  0  0  0  0  0  0
  154.1605  141.8533  162.0501 H   0  0  0  0  0  0  0  0  0  0  0  0
  152.5381  142.5364  162.0507 H   0  0  0  0  0  0  0  0  0  0  0  0
  153.8138  143.2527  161.0401 H   0  0  0  0  0  0  0  0  0  0  0  0
  150.4035  145.2846  159.5525 H   0  0  0  0  0  0  0  0  0  0  0  0
  149.4010  144.9977  158.1576 H   0  0  0  0  0  0  0  0  0  0  0  0
  148.4872  141.6173  155.9842 H   0  0  0  0  0  0  0  0  0  0  0  0
  149.8766  142.3736  155.2320 H   0  0  0  0  0  0  0  0  0  0  0  0
  148.4958  141.0968  153.5605 H   0  0  0  0  0  0  0  0  0  0  0  0
  150.1287  140.4645  153.6528 H   0  0  0  0  0  0  0  0  0  0  0  0
  149.1146  137.5934  155.6077 H   0  0  0  0  0  0  0  0  0  0  0  0
  150.4976  138.3835  154.8740 H   0  0  0  0  0  0  0  0  0  0  0  0
  150.5072  138.8023  157.3320 H   0  0  0  0  0  0  0  0  0  0  0  0
  148.8595  139.4126  157.2608 H   0  0  0  0  0  0  0  0  0  0  0  0
  153.0411  139.4254  159.1155 H   0  0  0  0  0  0  0  0  0  0  0  0
  151.5641  138.7943  158.4448 H   0  0  0  0  0  0  0  0  0  0  0  0
  152.3946  138.8811  156.4997 H   0  0  0  0  0  0  0  0  0  0  0  0
  1  2  1  0  0  0  0
  1 18  1  0  0  0  0
  1 19  1  0  0  0  0
  1 20  1  0  0  0  0
  2  3  1  0  0  0  0
  3 15  1  0  0  0  0
  3  4  2  0  0  0  0
  4  5  1  0  0  0  0
  5  6  1  0  0  0  0
  5  7  2  0  0  0  0
  6 21  1  0  0  0  0
  6 22  1  0  0  0  0
  7  8  1  0  0  0  0
  8  9  1  0  0  0  0
  8 15  2  0  0  0  0
  9 14  1  0  0  0  0
  9 10  1  0  0  0  0
 10 11  1  0  0  0  0
 10 23  1  0  0  0  0
 10 24  1  0  0  0  0
 11 12  1  0  0  0  0
 11 25  1  0  0  0  0
 11 26  1  0  0  0  0
 12 13  1  0  0  0  0
 13 14  1  0  0  0  0
 13 27  1  0  0  0  0
 13 28  1  0  0  0  0
 14 29  1  0  0  0  0
 14 30  1  0  0  0  0
 15 16  1  0  0  0  0
 16 17  1  0  0  0  0
 16 31  1  0  0  0  0
 16 32  1  0  0  0  0
 17 33  1  0  0  0  0
M  END
> <s_m_source_file>
AV-unprocessed.smi

> <i_m_source_file_index>
2937

> <i_lp_mmshare_version>
43012

> <i_f3d_flags>
0

> <s_epik_input>
W0NIM11PYzFuYyhbTkgyXSluYyhjMVtDSDJdW09IXSlOMltDSDJdW0NIMl1PW0NIMl1bQ0gyXTI=

> <s_epik_cmdline>
J2VwaWtfcHl0aG9uJywgJy1waCcsICc3LjAnLCAnLXRuJywgJzgnLCAnLW1hJywgJzIwMCcsICctbWV0YWxfYmluZGluZycsICctaW1hZScsICc8aW5maWxlLm1hZT4nLCAnLW9tYWUnLCAnPG91dGZpbGUubWFlPic=

> <r_lp_tautomer_probability>
1

> <r_epik_Ionization_Penalty>
0.000679252

> <r_epik_Ionization_Penalty_Charging>
0

> <r_epik_Ionization_Penalty_Neutral>
0.000679252

> <r_epik_State_Penalty>
0.00040271

> <r_epik_Charging_Adjusted_Penalty>
0.00040271

> <i_epik_Tot_Q>
0

> <i_epik_Tot_abs_Q>
0

> <r_epik_Metal_State_Penalty>
-0

> <b_epik_Metal_Only>
0

> <s_lp_Force_Field>
OPLS_2005

> <r_lp_Energy>
14.7013

> <b_lp_Chiralities_Consistent>
1

> <s_lp_Variant>
AV-unprocessed.smi:2937-1

> <Gold.Version>
5.8.1

> <Gold.Id.Protein>
6NUR|6NUR_protein|mol2

> <Gold.PLP.Fitness>
29.4854

> <Gold.PLP.PLP>
-23.4968

> <Gold.PLP.part.hbond>
-2.0000

> <Gold.PLP.part.metal>
0.0000

> <Gold.PLP.part.buried>
-4.8496

> <Gold.PLP.part.nonpolar>
-17.3522

> <Gold.PLP.part.repulsive>
0.4760

> <Gold.PLP.ligand.clash>
0.0000

> <Gold.PLP.ligand.torsion>
0.0962

> <Gold.PLP.Chemscore.Hbond>
2.0000

> <Gold.PLP.Chemscore.CHOScore>
0.0000

> <Gold.PLP.Chemscore.Metal>
0.0000

> <Gold.Chemscore.Hbonds>
donor molecule, donor type, donor heavy atom, donor atom, acceptor molecule, acceptor atom, score
      L1  H     6    22       P1  8029  1.00
      P1  H  7997  8008       L1    17  1.00

> <Gold.PLP.Chemscore.Internal.Correction>
0.1809

> <Gold.Rescore>
     Score         DG    S(hbond)    S(metal)    S(lipo)     H(rot)  DE(clash)    DE(int)     intcor
     10.63     -10.90       1.91        0.00      42.38       2.31       0.11       0.17       ----

> <Gold.Chemscore.Fitness>
10.6272

> <Gold.Chemscore.DG>
-10.9034

> <Gold.Chemscore.ZeroCoef>
-5.4800

> <Gold.Chemscore.Hbond>
1.9110

> <Gold.Chemscore.Metal>
0.0000

> <Gold.Chemscore.Lipo>
42.3841

> <Gold.Chemscore.Internal_Hbond>
0.0000

> <Gold.Chemscore.DEClash>
0.1053

> <Gold.Chemscore.DEInternal>
0.1709

> <Gold.Chemscore.Rot>
2.3118

> <Gold.Chemscore.Internal.Correction>
   9.000000E+99

> <Gold.Chemscore.Hbonds>
donor molecule, donor type, donor heavy atom, donor atom, acceptor molecule, acceptor atom, score
      L1  H     6    22       P1  8029  0.29
      P1  H  7997  8008       L1    17  0.97

> <Gold.Chemscore.Hbond.Weighted>
-6.3826

> <Gold.Chemscore.Metal.Weighted>
-0.0000

> <Gold.Chemscore.Lipo.Weighted>
-4.9589

> <Gold.Chemscore.Internal_Hbond.Weighted>
0.0000

> <Gold.Chemscore.DEClash.Weighted>
0.1053

> <Gold.Chemscore.DEInternal.Weighted>
0.1709

> <Gold.Chemscore.Rot.Weighted>
5.9181

> <Gold.Chemscore.Internal.Correction.Weighted>
   9.000000E+99

> <Gold.Protein.RotatedTorsions>
[ 6907 6896 6895 6894 ] final  -10.45 input  -60.11 | X-H torsion
[ 7974 7965 7964 7962 ] final  -35.34 input  175.53 | X-H torsion
[ 8008 7997 7996 7995 ] final  -72.51 input   59.86 | X-H torsion
[ 10167 10162 10161 10158 ] final -120.94 input  -65.29 | X-H torsion
[ 10718 10713 10712 10709 ] final  -35.75 input   66.30 | X-H torsion
[ 10763 10752 10751 10750 ] final -115.07 input  -60.55 | X-H torsion
[ 11005 11000 10999 10996 ] final   72.91 input  -57.11 | X-H torsion

> <Gold.Protein.ActiveResidues>
 VAL166  LYS551  ARG553  GLY616  TRP617  ASP618  TYR619  PRO620  LYS621  CYS622 
 ASP623  PHE694  ASN695  SER759  ASP760  ASP761  ALA762  ILE779  LEU786  VAL792 
 PHE793  MET794  SER795  GLU796  ALA797  LYS798  CYS799  TRP800  GLU811  SER814 

> <Gold.Protein.RotatedAtoms>
  151.4018  135.0972  159.9557 H   0  0  0  0  0  0  0  0  0  0  0  0  # atno 6907 bound_to 6896
  152.5048  133.8881  159.7390 H   0  0  0  0  0  0  0  0  0  0  0  0  # atno 6908 bound_to 6896
  150.9357  133.6659  159.2830 H   0  0  0  0  0  0  0  0  0  0  0  0  # atno 6909 bound_to 6896
  146.0755  140.6147  142.8933 H   0  0  0  0  0  0  0  0  0  0  0  0  # atno 7974 bound_to 7965
  154.5172  140.0796  156.8103 H   0  0  0  0  0  0  0  0  0  0  0  0  # atno 8008 bound_to 7997
  155.3655  140.3420  155.4223 H   0  0  0  0  0  0  0  0  0  0  0  0  # atno 8009 bound_to 7997
  156.1641  140.1598  156.8549 H   0  0  0  0  0  0  0  0  0  0  0  0  # atno 8010 bound_to 7997
  140.0304  143.5254  152.2179 H   0  0  0  0  0  0  0  0  0  0  0  0  # atno 10167 bound_to 10162
  156.3350  130.4285  149.7838 H   0  0  0  0  0  0  0  0  0  0  0  0  # atno 10718 bound_to 10713
  154.8466  135.4395  154.1606 H   0  0  0  0  0  0  0  0  0  0  0  0  # atno 10763 bound_to 10752
  153.2744  135.6948  153.7454 H   0  0  0  0  0  0  0  0  0  0  0  0  # atno 10764 bound_to 10752
  153.6683  135.3423  155.3121 H   0  0  0  0  0  0  0  0  0  0  0  0  # atno 10765 bound_to 10752
  139.9467  134.7301  156.0963 H   0  0  0  0  0  0  0  0  0  0  0  0  # atno 11005 bound_to 11000
  144.7258  140.4521  143.6974 LP  0  0  0  0  0  0  0  0  0  0  0  0  # atno 17320 bound_to 7965
  145.6314  139.1537  143.2967 LP  0  0  0  0  0  0  0  0  0  0  0  0  # atno 17321 bound_to 7965
  139.6080  144.7601  151.3017 LP  0  0  0  0  0  0  0  0  0  0  0  0  # atno 17342 bound_to 10162
  140.7304  143.6879  150.7946 LP  0  0  0  0  0  0  0  0  0  0  0  0  # atno 17343 bound_to 10162
  156.5097  130.8166  151.3164 LP  0  0  0  0  0  0  0  0  0  0  0  0  # atno 17370 bound_to 10713
  157.7437  130.9918  150.2613 LP  0  0  0  0  0  0  0  0  0  0  0  0  # atno 17371 bound_to 10713
  141.1119  133.6640  156.2999 LP  0  0  0  0  0  0  0  0  0  0  0  0  # atno 17394 bound_to 11000
  140.5818  134.5738  157.5481 LP  0  0  0  0  0  0  0  0  0  0  0  0  # atno 17395 bound_to 11000

$$$$
