AV-unprocessed.smi:24|AV-procd|sdf|176|dock7
  -GOLD-   2262015433D 1   1.00000     0.00000
 Structure written by MMmdl.
 61 65  0  0  0  0  0  0  0  0  1 V2000
  149.7187  130.6019  160.6006 C   0  0  0  0  0  0  0  0  0  0  0  0
  150.1580  129.9963  159.3936 O   0  0  0  0  0  0  0  0  0  0  0  0
  150.0562  130.7252  158.2282 C   0  0  0  0  0  0  0  0  0  0  0  0
  150.4982  130.1041  157.0424 C   0  0  0  0  0  0  0  0  0  0  0  0
  150.4299  130.7755  155.8068 C   0  0  0  0  0  0  0  0  0  0  0  0
  149.9208  132.0880  155.7374 C   0  0  0  0  0  0  0  0  0  0  0  0
  149.8445  132.7976  154.3866 C   0  0  1  0  0  0  0  0  0  0  0  0
  148.8333  132.1352  153.4468 C   0  0  0  0  0  0  0  0  0  0  0  0
  147.9004  133.2646  153.1637 C   0  0  0  0  0  0  0  0  0  0  0  0
  146.7100  133.0920  152.3016 C   0  0  0  0  0  0  0  0  0  0  0  0
  145.9890  134.2312  151.8765 C   0  0  0  0  0  0  0  0  0  0  0  0
  144.8553  134.0676  151.0564 C   0  0  0  0  0  0  0  0  0  0  0  0
  144.4459  132.7778  150.6640 C   0  0  0  0  0  0  0  0  0  0  0  0
  145.1685  131.6454  151.0896 C   0  0  0  0  0  0  0  0  0  0  0  0
  146.3038  131.7961  151.9100 C   0  0  0  0  0  0  0  0  0  0  0  0
  148.2307  134.3643  153.7332 N   0  0  0  0  0  0  0  0  0  0  0  0
  149.3693  134.1861  154.4493 N   0  0  0  0  0  0  0  0  0  0  0  0
  150.0290  135.1970  155.0571 C   0  0  0  0  0  0  0  0  0  0  0  0
  151.1172  135.0244  155.6096 O   0  0  0  0  0  0  0  0  0  0  0  0
  149.3871  136.6008  155.0426 C   0  0  0  0  0  0  0  0  0  0  0  0
  150.3404  137.6880  155.3553 N   0  0  0  0  0  0  0  0  0  0  0  0
  151.5736  137.7315  154.6589 C   0  0  0  0  0  0  0  0  0  0  0  0
  151.8610  136.8811  153.8150 O   0  0  0  0  0  0  0  0  0  0  0  0
  152.4537  138.8416  155.0060 C   0  0  0  0  0  0  0  0  0  0  0  0
  153.6513  138.9534  154.4068 F   0  0  0  0  0  0  0  0  0  0  0  0
  152.0857  139.7609  155.9221 C   0  0  0  0  0  0  0  0  0  0  0  0
  150.8692  139.7171  156.5802 N   0  0  0  0  0  0  0  0  0  0  0  0
  150.4666  140.7607  157.6015 C   0  0  2  0  0  0  0  0  0  0  0  0
  150.4592  142.1658  156.9685 C   0  0  0  0  0  0  0  0  0  0  0  0
  151.3133  142.9708  157.9277 C   0  0  0  0  0  0  0  0  0  0  0  0
  152.2551  141.9097  158.4764 C   0  0  0  0  0  0  0  0  0  0  0  0
  151.3973  140.7891  158.6464 O   0  0  0  0  0  0  0  0  0  0  0  0
  149.9685  138.6641  156.3100 C   0  0  0  0  0  0  0  0  0  0  0  0
  148.8808  138.6056  156.8882 O   0  0  0  0  0  0  0  0  0  0  0  0
  149.4708  132.7148  156.9199 C   0  0  0  0  0  0  0  0  0  0  0  0
  149.5388  132.0426  158.1553 C   0  0  0  0  0  0  0  0  0  0  0  0
  149.8588  129.9034  161.4255 H   0  0  0  0  0  0  0  0  0  0  0  0
  148.6578  130.8520  160.5572 H   0  0  0  0  0  0  0  0  0  0  0  0
  150.2932  131.5009  160.8285 H   0  0  0  0  0  0  0  0  0  0  0  0
  150.8936  129.0997  157.0803 H   0  0  0  0  0  0  0  0  0  0  0  0
  150.7725  130.2781  154.9114 H   0  0  0  0  0  0  0  0  0  0  0  0
  150.8324  132.7924  153.9214 H   0  0  0  0  0  0  0  0  0  0  0  0
  149.3105  131.7762  152.5344 H   0  0  0  0  0  0  0  0  0  0  0  0
  148.3090  131.3033  153.9194 H   0  0  0  0  0  0  0  0  0  0  0  0
  146.2867  135.2283  152.1675 H   0  0  0  0  0  0  0  0  0  0  0  0
  144.2988  134.9329  150.7280 H   0  0  0  0  0  0  0  0  0  0  0  0
  143.5760  132.6567  150.0355 H   0  0  0  0  0  0  0  0  0  0  0  0
  144.8510  130.6586  150.7859 H   0  0  0  0  0  0  0  0  0  0  0  0
  146.8404  130.9125  152.2219 H   0  0  0  0  0  0  0  0  0  0  0  0
  148.9207  136.7640  154.0697 H   0  0  0  0  0  0  0  0  0  0  0  0
  148.5510  136.6107  155.7437 H   0  0  0  0  0  0  0  0  0  0  0  0
  152.7849  140.5550  156.1346 H   0  0  0  0  0  0  0  0  0  0  0  0
  149.4976  140.4377  157.9860 H   0  0  0  0  0  0  0  0  0  0  0  0
  150.9201  142.1385  155.9797 H   0  0  0  0  0  0  0  0  0  0  0  0
  149.4423  142.5474  156.8749 H   0  0  0  0  0  0  0  0  0  0  0  0
  151.8350  143.7979  157.4458 H   0  0  0  0  0  0  0  0  0  0  0  0
  150.6962  143.3748  158.7314 H   0  0  0  0  0  0  0  0  0  0  0  0
  153.0410  141.6781  157.7562 H   0  0  0  0  0  0  0  0  0  0  0  0
  152.7231  142.2044  159.4159 H   0  0  0  0  0  0  0  0  0  0  0  0
  149.0675  133.7163  156.8866 H   0  0  0  0  0  0  0  0  0  0  0  0
  149.1855  132.5610  159.0337 H   0  0  0  0  0  0  0  0  0  0  0  0
  1  2  1  0  0  0  0
  1 37  1  0  0  0  0
  1 38  1  0  0  0  0
  1 39  1  0  0  0  0
  2  3  1  0  0  0  0
  3 36  1  0  0  0  0
  3  4  2  0  0  0  0
  4  5  1  0  0  0  0
  4 40  1  0  0  0  0
  5  6  2  0  0  0  0
  5 41  1  0  0  0  0
  6  7  1  0  0  0  0
  6 35  1  0  0  0  0
  7 17  1  0  0  0  0
  7  8  1  0  0  0  0
  7 42  1  0  0  0  0
  8  9  1  0  0  0  0
  8 43  1  0  0  0  0
  8 44  1  0  0  0  0
  9 10  1  0  0  0  0
  9 16  2  0  0  0  0
 10 15  1  0  0  0  0
 10 11  2  0  0  0  0
 11 12  1  0  0  0  0
 11 45  1  0  0  0  0
 12 13  2  0  0  0  0
 12 46  1  0  0  0  0
 13 14  1  0  0  0  0
 13 47  1  0  0  0  0
 14 15  2  0  0  0  0
 14 48  1  0  0  0  0
 15 49  1  0  0  0  0
 16 17  1  0  0  0  0
 17 18  1  0  0  0  0
 18 19  2  0  0  0  0
 18 20  1  0  0  0  0
 20 21  1  0  0  0  0
 20 50  1  0  0  0  0
 20 51  1  0  0  0  0
 21 33  1  0  0  0  0
 21 22  1  0  0  0  0
 22 23  2  0  0  0  0
 22 24  1  0  0  0  0
 24 25  1  0  0  0  0
 24 26  2  0  0  0  0
 26 27  1  0  0  0  0
 26 52  1  0  0  0  0
 27 28  1  0  0  0  0
 27 33  1  0  0  0  0
 28 32  1  0  0  0  0
 28 29  1  0  0  0  0
 28 53  1  0  0  0  0
 29 30  1  0  0  0  0
 29 54  1  0  0  0  0
 29 55  1  0  0  0  0
 30 31  1  0  0  0  0
 30 56  1  0  0  0  0
 30 57  1  0  0  0  0
 31 32  1  0  0  0  0
 31 58  1  0  0  0  0
 31 59  1  0  0  0  0
 33 34  2  0  0  0  0
 35 36  2  0  0  0  0
 35 60  1  0  0  0  0
 36 61  1  0  0  0  0
M  END
> <s_m_source_file>
AV-unprocessed.smi

> <i_m_source_file_index>
24

> <i_lp_mmshare_version>
43012

> <i_f3d_flags>
0

> <s_epik_input>
W0NIM11PYzFbY0hdW2NIXWMoW2NIXVtjSF0xKVtDQEBIXTJbQ0gyXUMoYzNbY0hdW2NIXVtjSF1bY0hdW2NIXTMpPU5OMkMoPU8pW0NIMl1uNGMoPU8pYyhGKVtjSF1uKGM0PU8pW0NAQEhdNVtDSDJdW0NIMl1bQ0gyXU81

> <s_epik_cmdline>
J2VwaWtfcHl0aG9uJywgJy1waCcsICc3LjAnLCAnLXRuJywgJzgnLCAnLW1hJywgJzIwMCcsICctbWV0YWxfYmluZGluZycsICctaW1hZScsICc8aW5maWxlLm1hZT4nLCAnLW9tYWUnLCAnPG91dGZpbGUubWFlPic=

> <r_lp_tautomer_probability>
1

> <r_epik_Ionization_Penalty>
1.46326e-08

> <r_epik_Ionization_Penalty_Charging>
4.53232e-09

> <r_epik_Ionization_Penalty_Neutral>
1.01002e-08

> <r_epik_State_Penalty>
-0

> <r_epik_Charging_Adjusted_Penalty>
4.53232e-09

> <i_epik_Tot_Q>
0

> <i_epik_Tot_abs_Q>
0

> <r_epik_Metal_State_Penalty>
-0

> <b_epik_Metal_Only>
0

> <s_epik_Chemistry_Notes>
This compound has an imine and may undergo hydrolysis. This compound contains an acetal/aminal-like group ( X-CH(R)-Y where X, Y are N, S, or O) that may be acid/base labile, releasing an aldehyde.

> <s_lp_Force_Field>
OPLS_2005

> <r_lp_Energy>
50.3667

> <b_lp_Chiralities_Consistent>
1

> <s_lp_Variant>
AV-unprocessed.smi:24-2

> <Gold.Version>
5.8.1

> <Gold.Id.Protein>
6NUR|6NUR_protein|mol2

> <Gold.PLP.Fitness>
51.9314

> <Gold.PLP.PLP>
-49.7913

> <Gold.PLP.part.hbond>
-1.9240

> <Gold.PLP.part.metal>
0.0000

> <Gold.PLP.part.buried>
-6.5149

> <Gold.PLP.part.nonpolar>
-48.2139

> <Gold.PLP.part.repulsive>
5.6207

> <Gold.PLP.ligand.clash>
0.0000

> <Gold.PLP.ligand.torsion>
0.4771

> <Gold.PLP.Chemscore.Hbond>
1.0000

> <Gold.PLP.Chemscore.CHOScore>
0.0000

> <Gold.PLP.Chemscore.Metal>
0.0000

> <Gold.Chemscore.Hbonds>
donor molecule, donor type, donor heavy atom, donor atom, acceptor molecule, acceptor atom, score
      P1  H 10752 10764       L1    23  1.00

> <Gold.PLP.Chemscore.Internal.Correction>
0.0943

> <Gold.Rescore>
     Score         DG    S(hbond)    S(metal)    S(lipo)     H(rot)  DE(clash)    DE(int)     intcor
     11.41     -17.92       0.99        0.00     121.20       1.98       2.15       4.37       ----

> <Gold.Chemscore.Fitness>
11.4061

> <Gold.Chemscore.DG>
-17.9201

> <Gold.Chemscore.ZeroCoef>
-5.4800

> <Gold.Chemscore.Hbond>
0.9928

> <Gold.Chemscore.Metal>
0.0000

> <Gold.Chemscore.Lipo>
121.1976

> <Gold.Chemscore.Internal_Hbond>
0.0000

> <Gold.Chemscore.DEClash>
2.1481

> <Gold.Chemscore.DEInternal>
4.3659

> <Gold.Chemscore.Rot>
1.9750

> <Gold.Chemscore.Internal.Correction>
   9.000000E+99

> <Gold.Chemscore.Hbonds>
donor molecule, donor type, donor heavy atom, donor atom, acceptor molecule, acceptor atom, score
      P1  H 10752 10764       L1    23  0.99

> <Gold.Chemscore.Hbond.Weighted>
-3.3161

> <Gold.Chemscore.Metal.Weighted>
-0.0000

> <Gold.Chemscore.Lipo.Weighted>
-14.1801

> <Gold.Chemscore.Internal_Hbond.Weighted>
0.0000

> <Gold.Chemscore.DEClash.Weighted>
2.1481

> <Gold.Chemscore.DEInternal.Weighted>
4.3659

> <Gold.Chemscore.Rot.Weighted>
5.0561

> <Gold.Chemscore.Internal.Correction.Weighted>
   9.000000E+99

> <Gold.Protein.RotatedTorsions>
[ 6907 6896 6895 6894 ] final  136.80 input  -60.11 | X-H torsion
[ 7974 7965 7964 7962 ] final  -81.14 input  175.53 | X-H torsion
[ 8008 7997 7996 7995 ] final  -56.28 input   59.86 | X-H torsion
[ 10167 10162 10161 10158 ] final  117.33 input  -65.29 | X-H torsion
[ 10718 10713 10712 10709 ] final   14.35 input   66.30 | X-H torsion
[ 10763 10752 10751 10750 ] final  -95.54 input  -60.55 | X-H torsion
[ 11005 11000 10999 10996 ] final   22.76 input  -57.11 | X-H torsion

> <Gold.Protein.ActiveResidues>
 VAL166  LYS551  ARG553  GLY616  TRP617  ASP618  TYR619  PRO620  LYS621  CYS622 
 ASP623  PHE694  ASN695  SER759  ASP760  ASP761  ALA762  ILE779  LEU786  VAL792 
 PHE793  MET794  SER795  GLU796  ALA797  LYS798  CYS799  TRP800  GLU811  SER814 

> <Gold.Protein.RotatedAtoms>
  152.2853  133.5509  159.5522 H   0  0  0  0  0  0  0  0  0  0  0  0  # atno 6907 bound_to 6896
  150.7212  134.0506  159.3806 H   0  0  0  0  0  0  0  0  0  0  0  0  # atno 6908 bound_to 6896
  151.8415  135.0589  160.0499 H   0  0  0  0  0  0  0  0  0  0  0  0  # atno 6909 bound_to 6896
  145.5506  140.9497  143.1501 H   0  0  0  0  0  0  0  0  0  0  0  0  # atno 7974 bound_to 7965
  154.4224  140.1133  156.5612 H   0  0  0  0  0  0  0  0  0  0  0  0  # atno 8008 bound_to 7997
  155.6309  140.3495  155.4663 H   0  0  0  0  0  0  0  0  0  0  0  0  # atno 8009 bound_to 7997
  155.9949  140.1187  157.0593 H   0  0  0  0  0  0  0  0  0  0  0  0  # atno 8010 bound_to 7997
  139.6186  144.7097  151.2684 H   0  0  0  0  0  0  0  0  0  0  0  0  # atno 10167 bound_to 10162
  157.0379  130.6219  149.5746 H   0  0  0  0  0  0  0  0  0  0  0  0  # atno 10718 bound_to 10713
  154.7157  135.5117  153.8734 H   0  0  0  0  0  0  0  0  0  0  0  0  # atno 10763 bound_to 10752
  153.0818  135.6633  154.0037 H   0  0  0  0  0  0  0  0  0  0  0  0  # atno 10764 bound_to 10752
  153.9870  135.3023  155.3395 H   0  0  0  0  0  0  0  0  0  0  0  0  # atno 10765 bound_to 10752
  140.3770  134.1961  155.7664 H   0  0  0  0  0  0  0  0  0  0  0  0  # atno 11005 bound_to 11000
  144.7531  139.7142  143.7265 LP  0  0  0  0  0  0  0  0  0  0  0  0  # atno 17320 bound_to 7965
  146.1919  139.5165  142.9799 LP  0  0  0  0  0  0  0  0  0  0  0  0  # atno 17321 bound_to 7965
  140.7367  143.6699  150.8091 LP  0  0  0  0  0  0  0  0  0  0  0  0  # atno 17342 bound_to 10162
  140.0306  143.5448  152.2762 LP  0  0  0  0  0  0  0  0  0  0  0  0  # atno 17343 bound_to 10162
  156.0048  130.5133  150.7790 LP  0  0  0  0  0  0  0  0  0  0  0  0  # atno 17370 bound_to 10713
  157.5127  131.0926  151.0178 LP  0  0  0  0  0  0  0  0  0  0  0  0  # atno 17371 bound_to 10713
  141.1936  133.8147  157.0792 LP  0  0  0  0  0  0  0  0  0  0  0  0  # atno 17394 bound_to 11000
  140.0507  134.9807  157.1132 LP  0  0  0  0  0  0  0  0  0  0  0  0  # atno 17395 bound_to 11000

$$$$
