AV-unprocessed.smi:283|AV-procd|sdf|2140|dock2
  -GOLD-   2262021463D 1   1.00000     0.00000
 Structure written by MMmdl.
 48 51  0  0  0  0  0  0  0  0  1 V2000
  143.5918  132.2983  150.8211 C   0  0  0  0  0  0  0  0  0  0  0  0
  144.7997  132.5570  151.7315 C   0  0  1  0  0  0  0  0  0  0  0  0
  144.3750  133.3026  152.9146 N   0  0  0  0  0  0  0  0  0  0  0  0
  144.7149  134.6003  153.0801 C   0  0  0  0  0  0  0  0  0  0  0  0
  143.9304  135.4967  152.4357 N   0  0  0  0  0  0  0  0  0  0  0  0
  144.1642  136.8054  152.5624 C   0  0  0  0  0  0  0  0  0  0  0  0
  145.1141  137.4173  153.2707 N   0  0  0  0  0  0  0  0  0  0  0  0
  145.9224  136.5215  153.9089 C   0  0  0  0  0  0  0  0  0  0  0  0
  145.7967  135.1034  153.8619 C   0  0  0  0  0  0  0  0  0  0  0  0
  146.8075  134.5291  154.6246 N   0  0  0  0  0  0  0  0  0  0  0  0
  147.4689  135.5444  155.1078 C   0  0  0  0  0  0  0  0  0  0  0  0
  146.9995  136.7817  154.7336 N   0  0  0  0  0  0  0  0  0  0  0  0
  147.5371  138.1179  155.1404 C   0  0  1  0  0  0  0  0  0  0  0  0
  148.7967  137.9566  155.7060 O   0  0  0  0  0  0  0  0  0  0  0  0
  149.5669  139.1346  155.4902 C   0  0  1  0  0  0  0  0  0  0  0  0
  151.0050  138.7294  155.1173 C   0  0  0  0  0  0  0  0  0  0  0  0
  151.8506  139.8517  154.9736 O   0  0  0  0  0  0  0  0  0  0  0  0
  148.8174  139.9930  154.4487 C   0  0  2  0  0  0  0  0  0  0  0  0
  148.2706  141.1323  155.0859 O   0  0  0  0  0  0  0  0  0  0  0  0
  147.6927  139.0884  153.9610 C   0  0  1  0  0  0  0  0  0  0  0  0
  148.0411  138.4507  152.7457 O   0  0  0  0  0  0  0  0  0  0  0  0
  145.5333  131.2449  152.0268 C   0  0  0  0  0  0  0  0  0  0  0  0
  144.9482  130.0100  151.6604 C   0  0  0  0  0  0  0  0  0  0  0  0
  145.6047  128.7951  151.9316 C   0  0  0  0  0  0  0  0  0  0  0  0
  146.8609  128.8010  152.5635 C   0  0  0  0  0  0  0  0  0  0  0  0
  147.4608  130.0235  152.9172 C   0  0  0  0  0  0  0  0  0  0  0  0
  146.8072  131.2430  152.6496 C   0  0  0  0  0  0  0  0  0  0  0  0
  147.5987  132.7143  153.0956 Cl  0  0  0  0  0  0  0  0  0  0  0  0
  146.8455  138.4875  155.8990 H   0  0  0  0  0  0  0  0  0  0  0  0
  149.6079  139.6577  156.4473 H   0  0  0  0  0  0  0  0  0  0  0  0
  149.4571  140.3391  153.6356 H   0  0  0  0  0  0  0  0  0  0  0  0
  146.7551  139.6228  153.8013 H   0  0  0  0  0  0  0  0  0  0  0  0
  143.8976  131.8192  149.8904 H   0  0  0  0  0  0  0  0  0  0  0  0
  143.0886  133.2298  150.5596 H   0  0  0  0  0  0  0  0  0  0  0  0
  142.8618  131.6482  151.3047 H   0  0  0  0  0  0  0  0  0  0  0  0
  145.4670  133.2209  151.1847 H   0  0  0  0  0  0  0  0  0  0  0  0
  144.0884  132.7269  153.6929 H   0  0  0  0  0  0  0  0  0  0  0  0
  143.4917  137.4561  152.0232 H   0  0  0  0  0  0  0  0  0  0  0  0
  148.3197  135.4169  155.7612 H   0  0  0  0  0  0  0  0  0  0  0  0
  151.4236  138.0965  155.9002 H   0  0  0  0  0  0  0  0  0  0  0  0
  151.0130  138.1462  154.1962 H   0  0  0  0  0  0  0  0  0  0  0  0
  152.7476  139.5515  154.9693 H   0  0  0  0  0  0  0  0  0  0  0  0
  148.4277  141.0601  156.0150 H   0  0  0  0  0  0  0  0  0  0  0  0
  148.7592  138.9249  152.3549 H   0  0  0  0  0  0  0  0  0  0  0  0
  143.9856  129.9860  151.1710 H   0  0  0  0  0  0  0  0  0  0  0  0
  145.1437  127.8588  151.6535 H   0  0  0  0  0  0  0  0  0  0  0  0
  147.3665  127.8698  152.7720 H   0  0  0  0  0  0  0  0  0  0  0  0
  148.4294  130.0247  153.3951 H   0  0  0  0  0  0  0  0  0  0  0  0
  1  2  1  0  0  0  0
  1 33  1  0  0  0  0
  1 34  1  0  0  0  0
  1 35  1  0  0  0  0
  2  3  1  0  0  0  0
  2 22  1  0  0  0  0
  2 36  1  0  0  0  0
  3  4  1  0  0  0  0
  3 37  1  0  0  0  0
  4  9  1  0  0  0  0
  4  5  2  0  0  0  0
  5  6  1  0  0  0  0
  6  7  2  0  0  0  0
  6 38  1  0  0  0  0
  7  8  1  0  0  0  0
  8 12  1  0  0  0  0
  8  9  2  0  0  0  0
  9 10  1  0  0  0  0
 10 11  2  0  0  0  0
 11 12  1  0  0  0  0
 11 39  1  0  0  0  0
 12 13  1  0  0  0  0
 13 29  1  0  0  0  0
 13 20  1  0  0  0  0
 13 14  1  0  0  0  0
 14 15  1  0  0  0  0
 15 30  1  0  0  0  0
 15 16  1  0  0  0  0
 15 18  1  0  0  0  0
 16 17  1  0  0  0  0
 16 40  1  0  0  0  0
 16 41  1  0  0  0  0
 17 42  1  0  0  0  0
 18 31  1  0  0  0  0
 18 19  1  0  0  0  0
 18 20  1  0  0  0  0
 19 43  1  0  0  0  0
 20 32  1  0  0  0  0
 20 21  1  0  0  0  0
 21 44  1  0  0  0  0
 22 27  1  0  0  0  0
 22 23  2  0  0  0  0
 23 24  1  0  0  0  0
 23 45  1  0  0  0  0
 24 25  2  0  0  0  0
 24 46  1  0  0  0  0
 25 26  1  0  0  0  0
 25 47  1  0  0  0  0
 26 27  2  0  0  0  0
 26 48  1  0  0  0  0
 27 28  1  0  0  0  0
M  END
> <s_m_source_file>
AV-unprocessed.smi

> <i_m_source_file_index>
283

> <i_lp_mmshare_version>
43012

> <i_f3d_flags>
0

> <s_epik_input>
Q2xjMVtjSF1bY0hdW2NIXVtjSF1jMVtDQEhdKFtDSDNdKVtOSF1jKG5bY0hdbjIpYyhjMjMpbltjSF1uM1tDQEBIXTRPW0NASF0oW0NIMl1bT0hdKVtDQEBIXShbT0hdKVtDQEhdNFtPSF0=

> <s_epik_cmdline>
J2VwaWtfcHl0aG9uJywgJy1waCcsICc3LjAnLCAnLXRuJywgJzgnLCAnLW1hJywgJzIwMCcsICctbWV0YWxfYmluZGluZycsICctaW1hZScsICc8aW5maWxlLm1hZT4nLCAnLW9tYWUnLCAnPG91dGZpbGUubWFlPic=

> <r_lp_tautomer_probability>
1

> <r_epik_Ionization_Penalty>
0.000266407

> <r_epik_Ionization_Penalty_Charging>
0

> <r_epik_Ionization_Penalty_Neutral>
0.000266407

> <r_epik_State_Penalty>
-0

> <r_epik_Charging_Adjusted_Penalty>
0

> <i_epik_Tot_Q>
0

> <i_epik_Tot_abs_Q>
0

> <r_epik_Metal_State_Penalty>
-0

> <b_epik_Metal_Only>
0

> <s_epik_Chemistry_Notes>
This compound contains an acetal/aminal-like group ( X-CH(R)-Y where X, Y are N, S, or O) that may be acid/base labile, releasing an aldehyde.

> <s_lp_Force_Field>
OPLS_2005

> <r_lp_Energy>
47.3301

> <b_lp_Chiralities_Consistent>
1

> <s_lp_Variant>
AV-unprocessed.smi:283-16

> <Gold.Version>
5.8.1

> <Gold.Id.Protein>
6NUR|6NUR_protein|mol2

> <Gold.PLP.Fitness>
46.1199

> <Gold.PLP.PLP>
-36.8180

> <Gold.PLP.part.hbond>
-4.0000

> <Gold.PLP.part.metal>
0.0000

> <Gold.PLP.part.buried>
-6.9850

> <Gold.PLP.part.nonpolar>
-27.7891

> <Gold.PLP.part.repulsive>
0.3942

> <Gold.PLP.ligand.clash>
0.0000

> <Gold.PLP.ligand.torsion>
1.2929

> <Gold.PLP.Chemscore.Hbond>
2.9833

> <Gold.PLP.Chemscore.CHOScore>
0.9562

> <Gold.PLP.Chemscore.Metal>
0.0000

> <Gold.Chemscore.Hbonds>
donor molecule, donor type, donor heavy atom, donor atom, acceptor molecule, acceptor atom, score
      L1  H     3    37       P1 10957  1.00
      L1  H    21    44       P1  7957  1.00
      P1  H  7989  7998       L1    17  0.96
      L1  C     6    38       P1 10171  0.98

> <Gold.PLP.Chemscore.Internal.Correction>
0.0694

> <Gold.Rescore>
     Score         DG    S(hbond)    S(metal)    S(lipo)     H(rot)  DE(clash)    DE(int)     intcor
     11.52     -14.52       2.53        0.00      94.65       4.10       0.13       2.87       ----

> <Gold.Chemscore.Fitness>
11.5181

> <Gold.Chemscore.DG>
-14.5169

> <Gold.Chemscore.ZeroCoef>
-5.4800

> <Gold.Chemscore.Hbond>
2.5301

> <Gold.Chemscore.Metal>
0.0000

> <Gold.Chemscore.Lipo>
94.6507

> <Gold.Chemscore.Internal_Hbond>
0.0000

> <Gold.Chemscore.DEClash>
0.1279

> <Gold.Chemscore.DEInternal>
2.8708

> <Gold.Chemscore.Rot>
4.0968

> <Gold.Chemscore.Internal.Correction>
   9.000000E+99

> <Gold.Chemscore.Hbonds>
donor molecule, donor type, donor heavy atom, donor atom, acceptor molecule, acceptor atom, score
      L1  H     3    37       P1 10957  0.63
      L1  H    21    44       P1  7957  0.97
      P1  H  7989  7998       L1    17  0.49

> <Gold.Chemscore.Hbond.Weighted>
-8.4506

> <Gold.Chemscore.Metal.Weighted>
-0.0000

> <Gold.Chemscore.Lipo.Weighted>
-11.0741

> <Gold.Chemscore.Internal_Hbond.Weighted>
0.0000

> <Gold.Chemscore.DEClash.Weighted>
0.1279

> <Gold.Chemscore.DEInternal.Weighted>
2.8708

> <Gold.Chemscore.Rot.Weighted>
10.4879

> <Gold.Chemscore.Internal.Correction.Weighted>
   9.000000E+99

> <Gold.Protein.RotatedTorsions>
[ 6907 6896 6895 6894 ] final -108.47 input  -60.11 | X-H torsion
[ 7974 7965 7964 7962 ] final   73.39 input  175.53 | X-H torsion
[ 8008 7997 7996 7995 ] final  -14.45 input   59.86 | X-H torsion
[ 10167 10162 10161 10158 ] final  163.57 input  -65.29 | X-H torsion
[ 10718 10713 10712 10709 ] final   49.73 input   66.30 | X-H torsion
[ 10763 10752 10751 10750 ] final  103.78 input  -60.55 | X-H torsion
[ 11005 11000 10999 10996 ] final -176.78 input  -57.11 | X-H torsion

> <Gold.Protein.ActiveResidues>
 VAL166  LYS551  ARG553  GLY616  TRP617  ASP618  TYR619  PRO620  LYS621  CYS622 
 ASP623  PHE694  ASN695  SER759  ASP760  ASP761  ALA762  ILE779  LEU786  VAL792 
 PHE793  MET794  SER795  GLU796  ALA797  LYS798  CYS799  TRP800  GLU811  SER814 

> <Gold.Protein.RotatedAtoms>
  150.7504  133.9672  159.3534 H   0  0  0  0  0  0  0  0  0  0  0  0  # atno 6907 bound_to 6896
  151.7603  135.0809  160.0354 H   0  0  0  0  0  0  0  0  0  0  0  0  # atno 6908 bound_to 6896
  152.3407  133.6027  159.5911 H   0  0  0  0  0  0  0  0  0  0  0  0  # atno 6909 bound_to 6896
  145.7415  139.2723  143.1483 H   0  0  0  0  0  0  0  0  0  0  0  0  # atno 7974 bound_to 7965
  154.5209  140.2223  155.8977 H   0  0  0  0  0  0  0  0  0  0  0  0  # atno 8008 bound_to 7997
  156.1661  140.3132  155.8856 H   0  0  0  0  0  0  0  0  0  0  0  0  # atno 8009 bound_to 7997
  155.3653  140.0463  157.3036 H   0  0  0  0  0  0  0  0  0  0  0  0  # atno 8010 bound_to 7997
  139.4876  144.4324  151.9054 H   0  0  0  0  0  0  0  0  0  0  0  0  # atno 10167 bound_to 10162
  157.4815  130.8318  149.8099 H   0  0  0  0  0  0  0  0  0  0  0  0  # atno 10718 bound_to 10713
  153.3572  135.3965  155.1691 H   0  0  0  0  0  0  0  0  0  0  0  0  # atno 10763 bound_to 10752
  154.8673  135.3671  154.5146 H   0  0  0  0  0  0  0  0  0  0  0  0  # atno 10764 bound_to 10752
  153.5602  135.7081  153.5611 H   0  0  0  0  0  0  0  0  0  0  0  0  # atno 10765 bound_to 10752
  140.4483  134.6367  157.4789 H   0  0  0  0  0  0  0  0  0  0  0  0  # atno 11005 bound_to 11000
  146.0443  140.8133  142.9813 LP  0  0  0  0  0  0  0  0  0  0  0  0  # atno 17320 bound_to 7965
  144.6869  140.2957  143.7271 LP  0  0  0  0  0  0  0  0  0  0  0  0  # atno 17321 bound_to 7965
  140.3772  144.2782  150.5913 LP  0  0  0  0  0  0  0  0  0  0  0  0  # atno 17342 bound_to 10162
  140.5266  143.2253  151.8305 LP  0  0  0  0  0  0  0  0  0  0  0  0  # atno 17343 bound_to 10162
  156.0124  130.3827  150.2221 LP  0  0  0  0  0  0  0  0  0  0  0  0  # atno 17370 bound_to 10713
  157.0407  131.0034  151.3284 LP  0  0  0  0  0  0  0  0  0  0  0  0  # atno 17371 bound_to 10713
  140.0024  134.6816  155.9509 LP  0  0  0  0  0  0  0  0  0  0  0  0  # atno 17394 bound_to 11000
  141.1675  133.6537  156.4533 LP  0  0  0  0  0  0  0  0  0  0  0  0  # atno 17395 bound_to 11000

$$$$
