AV-unprocessed.smi:160|AV-procd|sdf|1350|dock5
  -GOLD-   2262019 53D 1   1.00000     0.00000
 Structure written by MMmdl.
 29 30  0  0  0  0  0  0  0  0  1 V2000
  145.4114  140.5600  157.0208 N   0  0  0  0  0  0  0  0  0  0  0  0
  146.6268  140.0212  157.1636 C   0  0  0  0  0  0  0  0  0  0  0  0
  147.0727  139.6830  158.2589 O   0  0  0  0  0  0  0  0  0  0  0  0
  147.4300  139.8503  155.9039 C   0  0  0  0  0  0  0  0  0  0  0  0
  146.8889  140.1179  154.6787 N   0  0  0  0  0  0  0  0  0  0  0  0
  147.9401  139.8336  153.9206 C   0  0  0  0  0  0  0  0  0  0  0  0
  149.0147  139.4240  154.6029 N   0  0  0  0  0  0  0  0  0  0  0  0
  150.3767  139.0388  154.1025 C   0  0  1  0  0  0  0  0  0  0  0  0
  151.3008  139.8784  154.7219 O   0  0  0  0  0  0  0  0  0  0  0  0
  152.0594  139.1805  155.7112 C   0  0  1  0  0  0  0  0  0  0  0  0
  152.0491  139.9671  157.0322 C   0  0  0  0  0  0  0  0  0  0  0  0
  153.1750  139.6230  157.8111 O   0  0  0  0  0  0  0  0  0  0  0  0
  151.4263  137.7841  155.8265 C   0  0  2  0  0  0  0  0  0  0  0  0
  152.4251  136.8049  156.0334 O   0  0  0  0  0  0  0  0  0  0  0  0
  150.7606  137.5962  154.4715 C   0  0  1  0  0  0  0  0  0  0  0  0
  149.6596  136.7086  154.5469 O   0  0  0  0  0  0  0  0  0  0  0  0
  148.6991  139.4405  155.9226 N   0  0  0  0  0  0  0  0  0  0  0  0
  150.3298  139.2179  153.0276 H   0  0  0  0  0  0  0  0  0  0  0  0
  153.0779  139.0841  155.3299 H   0  0  0  0  0  0  0  0  0  0  0  0
  150.6931  137.7516  156.6337 H   0  0  0  0  0  0  0  0  0  0  0  0
  151.4809  137.2443  153.7314 H   0  0  0  0  0  0  0  0  0  0  0  0
  144.8252  140.7019  157.8302 H   0  0  0  0  0  0  0  0  0  0  0  0
  145.0889  140.8237  156.1010 H   0  0  0  0  0  0  0  0  0  0  0  0
  147.9261  139.9253  152.8444 H   0  0  0  0  0  0  0  0  0  0  0  0
  152.0232  141.0428  156.8571 H   0  0  0  0  0  0  0  0  0  0  0  0
  151.1623  139.7125  157.6133 H   0  0  0  0  0  0  0  0  0  0  0  0
  153.2409  140.2323  158.5304 H   0  0  0  0  0  0  0  0  0  0  0  0
  152.8894  137.0124  156.8297 H   0  0  0  0  0  0  0  0  0  0  0  0
  149.2803  136.6245  153.6856 H   0  0  0  0  0  0  0  0  0  0  0  0
  1  2  1  0  0  0  0
  1 22  1  0  0  0  0
  1 23  1  0  0  0  0
  2  3  2  0  0  0  0
  2  4  1  0  0  0  0
  4 17  2  0  0  0  0
  4  5  1  0  0  0  0
  5  6  2  0  0  0  0
  6  7  1  0  0  0  0
  6 24  1  0  0  0  0
  7  8  1  0  0  0  0
  7 17  1  0  0  0  0
  8 18  1  0  0  0  0
  8 15  1  0  0  0  0
  8  9  1  0  0  0  0
  9 10  1  0  0  0  0
 10 19  1  0  0  0  0
 10 11  1  0  0  0  0
 10 13  1  0  0  0  0
 11 12  1  0  0  0  0
 11 25  1  0  0  0  0
 11 26  1  0  0  0  0
 12 27  1  0  0  0  0
 13 20  1  0  0  0  0
 13 14  1  0  0  0  0
 13 15  1  0  0  0  0
 14 28  1  0  0  0  0
 15 21  1  0  0  0  0
 15 16  1  0  0  0  0
 16 29  1  0  0  0  0
M  END
> <s_m_source_file>
AV-unprocessed.smi

> <i_m_source_file_index>
160

> <i_lp_mmshare_version>
43012

> <i_f3d_flags>
0

> <s_epik_input>
W05IMl1DKD1PKWMxbltjSF1uKG4xKVtDQEBIXTJPW0NASF0oW0NIMl1bT0hdKVtDQEBIXShbT0hdKVtDQEhdMltPSF0=

> <s_epik_cmdline>
J2VwaWtfcHl0aG9uJywgJy1waCcsICc3LjAnLCAnLXRuJywgJzgnLCAnLW1hJywgJzIwMCcsICctbWV0YWxfYmluZGluZycsICctaW1hZScsICc8aW5maWxlLm1hZT4nLCAnLW9tYWUnLCAnPG91dGZpbGUubWFlPic=

> <r_lp_tautomer_probability>
1

> <r_epik_Ionization_Penalty>
1.06932e-05

> <r_epik_Ionization_Penalty_Charging>
0

> <r_epik_Ionization_Penalty_Neutral>
1.06932e-05

> <r_epik_State_Penalty>
-0

> <r_epik_Charging_Adjusted_Penalty>
0

> <i_epik_Tot_Q>
0

> <i_epik_Tot_abs_Q>
0

> <r_epik_Metal_State_Penalty>
0.0142097

> <b_epik_Metal_Only>
0

> <s_epik_Chemistry_Notes>
This compound contains an acetal/aminal-like group ( X-CH(R)-Y where X, Y are N, S, or O) that may be acid/base labile, releasing an aldehyde.

> <s_lp_Force_Field>
OPLS_2005

> <r_lp_Energy>
40.695

> <b_lp_Chiralities_Consistent>
1

> <s_lp_Variant>
AV-unprocessed.smi:160-8

> <Gold.Version>
5.8.1

> <Gold.Id.Protein>
6NUR|6NUR_protein|mol2

> <Gold.PLP.Fitness>
34.9383

> <Gold.PLP.PLP>
-20.5170

> <Gold.PLP.part.hbond>
-5.0000

> <Gold.PLP.part.metal>
0.0000

> <Gold.PLP.part.buried>
-2.2237

> <Gold.PLP.part.nonpolar>
-13.6674

> <Gold.PLP.part.repulsive>
0.1815

> <Gold.PLP.ligand.clash>
0.0000

> <Gold.PLP.ligand.torsion>
0.2949

> <Gold.PLP.Chemscore.Hbond>
4.0000

> <Gold.PLP.Chemscore.CHOScore>
1.0000

> <Gold.PLP.Chemscore.Metal>
0.0000

> <Gold.Chemscore.Hbonds>
donor molecule, donor type, donor heavy atom, donor atom, acceptor molecule, acceptor atom, score
      L1  H    16    29       P1  7948  1.00
      P1  H  7989  7998       L1     9  1.00
      P1  H  7997  8008       L1    12  1.00
      P1  H 10752 10765       L1    14  0.98
      L1  C     6    24       P1  7957  1.00

> <Gold.PLP.Chemscore.Internal.Correction>
0.0110

> <Gold.Rescore>
     Score         DG    S(hbond)    S(metal)    S(lipo)     H(rot)  DE(clash)    DE(int)     intcor
      9.24     -10.06       3.60        0.00      25.11       4.06       0.30       0.53       ----

> <Gold.Chemscore.Fitness>
9.2369

> <Gold.Chemscore.DG>
-10.0596

> <Gold.Chemscore.ZeroCoef>
-5.4800

> <Gold.Chemscore.Hbond>
3.6035

> <Gold.Chemscore.Metal>
0.0000

> <Gold.Chemscore.Lipo>
25.1073

> <Gold.Chemscore.Internal_Hbond>
0.0000

> <Gold.Chemscore.DEClash>
0.2961

> <Gold.Chemscore.DEInternal>
0.5266

> <Gold.Chemscore.Rot>
4.0600

> <Gold.Chemscore.Internal.Correction>
   9.000000E+99

> <Gold.Chemscore.Hbonds>
donor molecule, donor type, donor heavy atom, donor atom, acceptor molecule, acceptor atom, score
      L1  H    16    29       P1  7948  0.96
      P1  H  7989  7998       L1     9  0.25
      P1  H  7997  8008       L1    12  0.13
      P1  H 10752 10765       L1    14  0.82

> <Gold.Chemscore.Hbond.Weighted>
-12.0356

> <Gold.Chemscore.Metal.Weighted>
-0.0000

> <Gold.Chemscore.Lipo.Weighted>
-2.9375

> <Gold.Chemscore.Internal_Hbond.Weighted>
0.0000

> <Gold.Chemscore.DEClash.Weighted>
0.2961

> <Gold.Chemscore.DEInternal.Weighted>
0.5266

> <Gold.Chemscore.Rot.Weighted>
10.3936

> <Gold.Chemscore.Internal.Correction.Weighted>
   9.000000E+99

> <Gold.Protein.RotatedTorsions>
[ 6907 6896 6895 6894 ] final -160.11 input  -60.11 | X-H torsion
[ 7974 7965 7964 7962 ] final  -94.64 input  175.53 | X-H torsion
[ 8008 7997 7996 7995 ] final  -65.38 input   59.86 | X-H torsion
[ 10167 10162 10161 10158 ] final  -20.15 input  -65.29 | X-H torsion
[ 10718 10713 10712 10709 ] final    5.33 input   66.30 | X-H torsion
[ 10763 10752 10751 10750 ] final -147.92 input  -60.55 | X-H torsion
[ 11005 11000 10999 10996 ] final   67.95 input  -57.11 | X-H torsion

> <Gold.Protein.ActiveResidues>
 VAL166  LYS551  ARG553  GLY616  TRP617  ASP618  TYR619  PRO620  LYS621  CYS622 
 ASP623  PHE694  ASN695  SER759  ASP760  ASP761  ALA762  ILE779  LEU786  VAL792 
 PHE793  MET794  SER795  GLU796  ALA797  LYS798  CYS799  TRP800  GLU811  SER814 

> <Gold.Protein.RotatedAtoms>
  151.3439  133.3951  159.2673 H   0  0  0  0  0  0  0  0  0  0  0  0  # atno 6907 bound_to 6896
  150.9855  134.9202  159.7880 H   0  0  0  0  0  0  0  0  0  0  0  0  # atno 6908 bound_to 6896
  152.5231  134.3404  159.9267 H   0  0  0  0  0  0  0  0  0  0  0  0  # atno 6909 bound_to 6896
  145.3706  140.9505  143.2449 H   0  0  0  0  0  0  0  0  0  0  0  0  # atno 7974 bound_to 7965
  154.4668  140.0934  156.7042 H   0  0  0  0  0  0  0  0  0  0  0  0  # atno 8008 bound_to 7997
  155.4835  140.3468  155.4325 H   0  0  0  0  0  0  0  0  0  0  0  0  # atno 8009 bound_to 7997
  156.0970  140.1412  156.9506 H   0  0  0  0  0  0  0  0  0  0  0  0  # atno 8010 bound_to 7997
  140.7274  143.4750  151.0194 H   0  0  0  0  0  0  0  0  0  0  0  0  # atno 10167 bound_to 10162
  156.9059  130.5738  149.5647 H   0  0  0  0  0  0  0  0  0  0  0  0  # atno 10718 bound_to 10713
  154.8260  135.3348  154.6894 H   0  0  0  0  0  0  0  0  0  0  0  0  # atno 10763 bound_to 10752
  153.7519  135.6938  153.4948 H   0  0  0  0  0  0  0  0  0  0  0  0  # atno 10764 bound_to 10752
  153.2170  135.4462  155.0396 H   0  0  0  0  0  0  0  0  0  0  0  0  # atno 10765 bound_to 10752
  139.9740  134.6853  156.0390 H   0  0  0  0  0  0  0  0  0  0  0  0  # atno 11005 bound_to 11000
  144.8579  139.5221  143.6826 LP  0  0  0  0  0  0  0  0  0  0  0  0  # atno 17320 bound_to 7965
  146.2887  139.7077  142.9177 LP  0  0  0  0  0  0  0  0  0  0  0  0  # atno 17321 bound_to 7965
  139.8445  143.7520  152.3179 LP  0  0  0  0  0  0  0  0  0  0  0  0  # atno 17342 bound_to 10162
  139.7680  144.7486  151.0266 LP  0  0  0  0  0  0  0  0  0  0  0  0  # atno 17343 bound_to 10162
  156.0559  130.5621  150.9091 LP  0  0  0  0  0  0  0  0  0  0  0  0  # atno 17370 bound_to 10713
  157.5998  131.0941  150.8980 LP  0  0  0  0  0  0  0  0  0  0  0  0  # atno 17371 bound_to 10713
  141.1418  133.6563  156.3753 LP  0  0  0  0  0  0  0  0  0  0  0  0  # atno 17394 bound_to 11000
  140.5233  134.6283  157.5325 LP  0  0  0  0  0  0  0  0  0  0  0  0  # atno 17395 bound_to 11000

$$$$
