AV-unprocessed.smi:1572|AV-procd|sdf|6330|dock1
  -GOLD-   22720 6543D 1   1.00000     0.00000
 Structure written by MMmdl.
 42 43  0  0  0  0  0  0  0  0  3 V2000
  144.1418  133.6335  148.3921 C   0  0  0  0  0  0  0  0  0  0  0  0
  143.6263  133.6831  149.7797 N   0  3  0  0  0  0  0  0  0  0  0  0
  144.2845  134.7049  150.6265 C   0  0  0  0  0  0  0  0  0  0  0  0
  145.6811  134.2468  151.0969 C   0  0  0  0  0  0  0  0  0  0  0  0
  145.5633  132.9888  151.8498 N   0  0  0  0  0  0  0  0  0  0  0  0
  146.7647  132.5661  152.6158 C   0  0  0  0  0  0  0  0  0  0  0  0
  148.0654  132.8560  151.8309 C   0  0  0  0  0  0  0  0  0  0  0  0
  146.8329  133.3144  153.9719 C   0  0  0  0  0  0  0  0  0  0  0  0
  146.6751  131.0413  152.9270 C   0  0  0  0  0  0  0  0  0  0  0  0
  147.2839  130.2164  151.8816 N   0  0  0  0  0  0  0  0  0  0  0  0
  147.8501  129.0114  152.0420 C   0  0  0  0  0  0  0  0  0  0  0  0
  147.8192  128.4523  153.1406 O   0  0  0  0  0  0  0  0  0  0  0  0
  148.4364  128.5337  150.9214 N   0  5  0  0  0  0  0  0  0  0  0  0
  148.7191  127.2246  150.8205 C   0  0  0  0  0  0  0  0  0  0  0  0
  148.3255  126.3297  151.7404 N   0  0  0  0  0  0  0  0  0  0  0  0
  148.7192  125.0320  151.4426 N   0  0  0  0  0  0  0  0  0  0  0  0
  149.3959  124.9807  150.2956 C   0  0  0  0  0  0  0  0  0  0  0  0
  149.6165  126.5124  149.4763 S   0  0  0  0  0  0  0  0  0  0  0  0
  145.0384  131.9745  150.9221 C   0  0  0  0  0  0  0  0  0  0  0  0
  143.6215  132.3702  150.4653 C   0  0  0  0  0  0  0  0  0  0  0  0
  145.1909  133.3397  148.3574 H   0  0  0  0  0  0  0  0  0  0  0  0
  144.0482  134.6099  147.9157 H   0  0  0  0  0  0  0  0  0  0  0  0
  143.5698  132.9203  147.7979 H   0  0  0  0  0  0  0  0  0  0  0  0
  144.3530  135.6498  150.0865 H   0  0  0  0  0  0  0  0  0  0  0  0
  143.6524  134.8936  151.4956 H   0  0  0  0  0  0  0  0  0  0  0  0
  146.3632  134.1315  150.2543 H   0  0  0  0  0  0  0  0  0  0  0  0
  146.0781  135.0467  151.7182 H   0  0  0  0  0  0  0  0  0  0  0  0
  148.9412  132.6007  152.4284 H   0  0  0  0  0  0  0  0  0  0  0  0
  148.1566  133.9092  151.5652 H   0  0  0  0  0  0  0  0  0  0  0  0
  148.1341  132.2721  150.9129 H   0  0  0  0  0  0  0  0  0  0  0  0
  147.5806  132.8686  154.6288 H   0  0  0  0  0  0  0  0  0  0  0  0
  145.8798  133.2862  154.5020 H   0  0  0  0  0  0  0  0  0  0  0  0
  147.1213  134.3592  153.8552 H   0  0  0  0  0  0  0  0  0  0  0  0
  147.0760  130.7955  153.9102 H   0  0  0  0  0  0  0  0  0  0  0  0
  145.6266  130.7475  152.9857 H   0  0  0  0  0  0  0  0  0  0  0  0
  147.3313  130.6233  150.9590 H   0  0  0  0  0  0  0  0  0  0  0  0
  149.7670  124.0350  149.9299 H   0  0  0  0  0  0  0  0  0  0  0  0
  145.6994  131.8598  150.0628 H   0  0  0  0  0  0  0  0  0  0  0  0
  144.9765  130.9960  151.3910 H   0  0  0  0  0  0  0  0  0  0  0  0
  142.9597  132.4279  151.3313 H   0  0  0  0  0  0  0  0  0  0  0  0
  143.2028  131.6066  149.8089 H   0  0  0  0  0  0  0  0  0  0  0  0
  142.6592  133.9624  149.6971 H   0  0  0  0  0  0  0  0  0  0  0  0
  1  2  1  0  0  0  0
  1 21  1  0  0  0  0
  1 22  1  0  0  0  0
  1 23  1  0  0  0  0
  2 20  1  0  0  0  0
  2  3  1  0  0  0  0
  2 42  1  0  0  0  0
  3  4  1  0  0  0  0
  3 24  1  0  0  0  0
  3 25  1  0  0  0  0
  4  5  1  0  0  0  0
  4 26  1  0  0  0  0
  4 27  1  0  0  0  0
  5  6  1  0  0  0  0
  5 19  1  0  0  0  0
  6  7  1  0  0  0  0
  6  8  1  0  0  0  0
  6  9  1  0  0  0  0
  7 28  1  0  0  0  0
  7 29  1  0  0  0  0
  7 30  1  0  0  0  0
  8 31  1  0  0  0  0
  8 32  1  0  0  0  0
  8 33  1  0  0  0  0
  9 10  1  0  0  0  0
  9 34  1  0  0  0  0
  9 35  1  0  0  0  0
 10 11  1  0  0  0  0
 10 36  1  0  0  0  0
 11 12  2  0  0  0  0
 11 13  1  0  0  0  0
 13 14  1  0  0  0  0
 14 18  1  0  0  0  0
 14 15  2  0  0  0  0
 15 16  1  0  0  0  0
 16 17  2  0  0  0  0
 17 18  1  0  0  0  0
 17 37  1  0  0  0  0
 19 20  1  0  0  0  0
 19 38  1  0  0  0  0
 19 39  1  0  0  0  0
 20 40  1  0  0  0  0
 20 41  1  0  0  0  0
M  CHG  1   2   1
M  CHG  1  13  -1
M  END
> <s_m_source_file>
AV-unprocessed.smi

> <i_m_source_file_index>
1572

> <i_lp_mmshare_version>
43012

> <i_f3d_flags>
0

> <s_epik_input>
W0NIM11OMVtDSDJdW0NIMl1OKFtDSDJdW0NIMl0xKUMoW0NIM10pKFtDSDNdKVtDSDJdW05IXUMoPU8pW05IXWMybm5bY0hdczI=

> <s_epik_cmdline>
J2VwaWtfcHl0aG9uJywgJy1waCcsICc3LjAnLCAnLXRuJywgJzgnLCAnLW1hJywgJzIwMCcsICctbWV0YWxfYmluZGluZycsICctaW1hZScsICc8aW5maWxlLm1hZT4nLCAnLW9tYWUnLCAnPG91dGZpbGUubWFlPic=

> <r_lp_tautomer_probability>
1

> <r_epik_Ionization_Penalty>
3.56565

> <r_epik_Ionization_Penalty_Charging>
3.52353

> <r_epik_Ionization_Penalty_Neutral>
0.0421115

> <r_epik_State_Penalty>
3.62656

> <r_epik_Charging_Adjusted_Penalty>
7.1501

> <i_epik_Tot_Q>
0

> <i_epik_Tot_abs_Q>
2

> <r_epik_Metal_State_Penalty>
0.645945

> <b_epik_Metal_Only>
1

> <s_lp_Force_Field>
OPLS_2005

> <r_lp_Energy>
17.8403

> <b_lp_Chiralities_Consistent>
1

> <s_lp_Variant>
AV-unprocessed.smi:1572-4

> <Gold.Version>
5.8.1

> <Gold.Id.Protein>
6NUR|6NUR_protein|mol2

> <Gold.PLP.Fitness>
36.1799

> <Gold.PLP.PLP>
-32.4887

> <Gold.PLP.part.hbond>
-3.9206

> <Gold.PLP.part.metal>
0.0000

> <Gold.PLP.part.buried>
0.8012

> <Gold.PLP.part.nonpolar>
-29.4696

> <Gold.PLP.part.repulsive>
1.2763

> <Gold.PLP.ligand.clash>
0.0000

> <Gold.PLP.ligand.torsion>
1.5799

> <Gold.PLP.Chemscore.Hbond>
2.2600

> <Gold.PLP.Chemscore.CHOScore>
0.0000

> <Gold.PLP.Chemscore.Metal>
0.0000

> <Gold.Chemscore.Hbonds>
donor molecule, donor type, donor heavy atom, donor atom, acceptor molecule, acceptor atom, score
      L1  H     2    42       P1 10186  2.00
      L1  H    10    36       P1 10747  0.32

> <Gold.PLP.Chemscore.Internal.Correction>
0.0710

> <Gold.Rescore>
     Score         DG    S(hbond)    S(metal)    S(lipo)     H(rot)  DE(clash)    DE(int)     intcor
      8.83     -15.75       1.56        0.00      79.91       1.67       3.96       2.96       ----

> <Gold.Chemscore.Fitness>
8.8309

> <Gold.Chemscore.DG>
-15.7513

> <Gold.Chemscore.ZeroCoef>
-5.4800

> <Gold.Chemscore.Hbond>
1.5557

> <Gold.Chemscore.Metal>
0.0000

> <Gold.Chemscore.Lipo>
79.9072

> <Gold.Chemscore.Internal_Hbond>
0.0000

> <Gold.Chemscore.DEClash>
3.9580

> <Gold.Chemscore.DEInternal>
2.9624

> <Gold.Chemscore.Rot>
1.6694

> <Gold.Chemscore.Internal.Correction>
   9.000000E+99

> <Gold.Chemscore.Hbonds>
donor molecule, donor type, donor heavy atom, donor atom, acceptor molecule, acceptor atom, score
      L1  H     2    42       P1 10186  1.00
      L1  H    10    36       P1 10747  0.32

> <Gold.Chemscore.Hbond.Weighted>
-5.1959

> <Gold.Chemscore.Metal.Weighted>
-0.0000

> <Gold.Chemscore.Lipo.Weighted>
-9.3491

> <Gold.Chemscore.Internal_Hbond.Weighted>
0.0000

> <Gold.Chemscore.DEClash.Weighted>
3.9580

> <Gold.Chemscore.DEInternal.Weighted>
2.9624

> <Gold.Chemscore.Rot.Weighted>
4.2738

> <Gold.Chemscore.Internal.Correction.Weighted>
   9.000000E+99

> <Gold.Protein.RotatedTorsions>
[ 6907 6896 6895 6894 ] final   99.86 input  -60.11 | X-H torsion
[ 7974 7965 7964 7962 ] final -105.27 input  175.53 | X-H torsion
[ 8008 7997 7996 7995 ] final -178.10 input   59.86 | X-H torsion
[ 10167 10162 10161 10158 ] final   73.99 input  -65.29 | X-H torsion
[ 10718 10713 10712 10709 ] final  -66.29 input   66.30 | X-H torsion
[ 10763 10752 10751 10750 ] final -143.69 input  -60.55 | X-H torsion
[ 11005 11000 10999 10996 ] final  134.48 input  -57.11 | X-H torsion

> <Gold.Protein.ActiveResidues>
 VAL166  LYS551  ARG553  GLY616  TRP617  ASP618  TYR619  PRO620  LYS621  CYS622 
 ASP623  PHE694  ASN695  SER759  ASP760  ASP761  ALA762  ILE779  LEU786  VAL792 
 PHE793  MET794  SER795  GLU796  ALA797  LYS798  CYS799  TRP800  GLU811  SER814 

> <Gold.Protein.RotatedAtoms>
  152.5384  134.0365  159.8047 H   0  0  0  0  0  0  0  0  0  0  0  0  # atno 6907 bound_to 6896
  151.0527  133.5602  159.2648 H   0  0  0  0  0  0  0  0  0  0  0  0  # atno 6908 bound_to 6896
  151.2531  135.0636  159.9123 H   0  0  0  0  0  0  0  0  0  0  0  0  # atno 6909 bound_to 6896
  145.2325  140.9176  143.3196 H   0  0  0  0  0  0  0  0  0  0  0  0  # atno 7974 bound_to 7965
  156.0148  140.1248  157.0417 H   0  0  0  0  0  0  0  0  0  0  0  0  # atno 8008 bound_to 7997
  154.4289  140.1080  156.5950 H   0  0  0  0  0  0  0  0  0  0  0  0  # atno 8009 bound_to 7997
  155.6029  140.3470  155.4601 H   0  0  0  0  0  0  0  0  0  0  0  0  # atno 8010 bound_to 7997
  140.0185  144.5559  150.7600 H   0  0  0  0  0  0  0  0  0  0  0  0  # atno 10167 bound_to 10162
  156.0621  130.4260  150.1687 H   0  0  0  0  0  0  0  0  0  0  0  0  # atno 10718 bound_to 10713
  154.8459  135.3461  154.6228 H   0  0  0  0  0  0  0  0  0  0  0  0  # atno 10763 bound_to 10752
  153.6837  135.6978  153.5115 H   0  0  0  0  0  0  0  0  0  0  0  0  # atno 10764 bound_to 10752
  153.2648  135.4311  155.0886 H   0  0  0  0  0  0  0  0  0  0  0  0  # atno 10765 bound_to 10752
  139.9918  134.9512  156.9872 H   0  0  0  0  0  0  0  0  0  0  0  0  # atno 11005 bound_to 11000
  144.9663  139.3927  143.6331 LP  0  0  0  0  0  0  0  0  0  0  0  0  # atno 17320 bound_to 7965
  146.3349  139.8740  142.8835 LP  0  0  0  0  0  0  0  0  0  0  0  0  # atno 17321 bound_to 7965
  140.7352  143.2738  151.3805 LP  0  0  0  0  0  0  0  0  0  0  0  0  # atno 17342 bound_to 10162
  139.6156  144.1010  152.2342 LP  0  0  0  0  0  0  0  0  0  0  0  0  # atno 17343 bound_to 10162
  156.9754  130.9847  151.3449 LP  0  0  0  0  0  0  0  0  0  0  0  0  # atno 17370 bound_to 10713
  157.5637  130.8263  149.8299 LP  0  0  0  0  0  0  0  0  0  0  0  0  # atno 17371 bound_to 10713
  140.4895  134.1208  155.7230 LP  0  0  0  0  0  0  0  0  0  0  0  0  # atno 17394 bound_to 11000
  141.1572  133.8861  157.1946 LP  0  0  0  0  0  0  0  0  0  0  0  0  # atno 17395 bound_to 11000

$$$$
