AV-unprocessed.smi:2505|AV-procd|sdf|9855|dock1
  -GOLD-   2272013483D 1   1.00000     0.00000
 Structure written by MMmdl.
 48 52  0  0  0  0  0  0  0  0  1 V2000
  147.0562  136.3261  155.7625 O   0  0  0  0  0  0  0  0  0  0  0  0
  147.5899  136.2923  154.6560 C   0  0  0  0  0  0  0  0  0  0  0  0
  148.4974  137.1831  154.2123 N   0  0  0  0  0  0  0  0  0  0  0  0
  149.0559  138.2944  154.8968 C   0  0  0  0  0  0  0  0  0  0  0  0
  148.7688  138.6563  156.2362 C   0  0  0  0  0  0  0  0  0  0  0  0
  149.3550  139.7221  156.8235 N   0  0  0  0  0  0  0  0  0  0  0  0
  150.2156  140.4257  156.0828 C   0  0  0  0  0  0  0  0  0  0  0  0
  150.8878  141.5841  156.7522 C   0  0  0  0  0  0  0  0  0  0  0  0
  150.6939  141.8451  158.2321 C   0  0  0  0  0  0  0  0  0  0  0  0
  150.0852  142.7796  157.2243 C   0  0  0  0  0  0  0  0  0  0  0  0
  150.5807  140.1656  154.8243 N   0  0  0  0  0  0  0  0  0  0  0  0
  150.0009  139.1012  154.2295 C   0  0  0  0  0  0  0  0  0  0  0  0
  147.2588  135.3557  153.7510 N   0  0  0  0  0  0  0  0  0  0  0  0
  146.3080  134.2483  153.9123 C   0  0  2  0  0  0  0  0  0  0  0  0
  146.8569  133.0701  154.7541 C   0  0  2  0  0  0  0  0  0  0  0  0
  148.1184  133.1573  155.5793 C   0  0  0  0  0  0  0  0  0  0  0  0
  149.1792  132.5644  154.6471 C   0  0  0  0  0  0  0  0  0  0  0  0
  148.6156  132.6608  153.3410 O   0  0  0  0  0  0  0  0  0  0  0  0
  147.2215  132.3849  153.4467 C   0  0  2  0  0  0  0  0  0  0  0  0
  146.2759  133.3246  152.6717 C   0  0  0  0  0  0  0  0  0  0  0  0
  146.7434  133.8379  151.3092 C   0  0  0  0  0  0  0  0  0  0  0  0
  146.2693  132.8224  150.2682 C   0  0  0  0  0  0  0  0  0  0  0  0
  145.0506  132.1362  150.8920 C   0  0  0  0  0  0  0  0  0  0  0  0
  144.9223  132.7177  152.3038 C   0  0  0  0  0  0  0  0  0  0  0  0
  148.7856  137.0759  153.2507 H   0  0  0  0  0  0  0  0  0  0  0  0
  148.0919  138.0957  156.8613 H   0  0  0  0  0  0  0  0  0  0  0  0
  151.8738  141.7671  156.3295 H   0  0  0  0  0  0  0  0  0  0  0  0
  150.0185  141.1906  158.7798 H   0  0  0  0  0  0  0  0  0  0  0  0
  151.5539  142.2028  158.7945 H   0  0  0  0  0  0  0  0  0  0  0  0
  150.5375  143.7627  157.1120 H   0  0  0  0  0  0  0  0  0  0  0  0
  149.0042  142.7474  157.1020 H   0  0  0  0  0  0  0  0  0  0  0  0
  150.2945  138.8940  153.2106 H   0  0  0  0  0  0  0  0  0  0  0  0
  147.6698  135.4490  152.8331 H   0  0  0  0  0  0  0  0  0  0  0  0
  145.3075  134.5616  154.2154 H   0  0  0  0  0  0  0  0  0  0  0  0
  146.0425  132.5446  155.2553 H   0  0  0  0  0  0  0  0  0  0  0  0
  148.3636  134.1814  155.8565 H   0  0  0  0  0  0  0  0  0  0  0  0
  148.0458  132.5824  156.5029 H   0  0  0  0  0  0  0  0  0  0  0  0
  150.1332  133.0878  154.7099 H   0  0  0  0  0  0  0  0  0  0  0  0
  149.3498  131.5126  154.8816 H   0  0  0  0  0  0  0  0  0  0  0  0
  146.9815  131.3212  153.4158 H   0  0  0  0  0  0  0  0  0  0  0  0
  146.2857  134.8062  151.1010 H   0  0  0  0  0  0  0  0  0  0  0  0
  147.8228  133.9835  151.2573 H   0  0  0  0  0  0  0  0  0  0  0  0
  146.0349  133.2981  149.3156 H   0  0  0  0  0  0  0  0  0  0  0  0
  147.0522  132.0854  150.0846 H   0  0  0  0  0  0  0  0  0  0  0  0
  144.1444  132.3096  150.3105 H   0  0  0  0  0  0  0  0  0  0  0  0
  145.2120  131.0585  150.9354 H   0  0  0  0  0  0  0  0  0  0  0  0
  144.5956  131.9597  153.0167 H   0  0  0  0  0  0  0  0  0  0  0  0
  144.1564  133.4944  152.3026 H   0  0  0  0  0  0  0  0  0  0  0  0
  1  2  2  0  0  0  0
  2  3  1  0  0  0  0
  2 13  1  0  0  0  0
  3  4  1  0  0  0  0
  3 25  1  0  0  0  0
  4 12  1  0  0  0  0
  4  5  2  0  0  0  0
  5  6  1  0  0  0  0
  5 26  1  0  0  0  0
  6  7  2  0  0  0  0
  7  8  1  0  0  0  0
  7 11  1  0  0  0  0
  8 10  1  0  0  0  0
  8  9  1  0  0  0  0
  8 27  1  0  0  0  0
  9 10  1  0  0  0  0
  9 28  1  0  0  0  0
  9 29  1  0  0  0  0
 10 30  1  0  0  0  0
 10 31  1  0  0  0  0
 11 12  2  0  0  0  0
 12 32  1  0  0  0  0
 13 14  1  0  0  0  0
 13 33  1  0  0  0  0
 14 20  1  0  0  0  0
 14 15  1  0  0  0  0
 14 34  1  0  0  0  0
 15 19  1  0  0  0  0
 15 16  1  0  0  0  0
 15 35  1  0  0  0  0
 16 17  1  0  0  0  0
 16 36  1  0  0  0  0
 16 37  1  0  0  0  0
 17 18  1  0  0  0  0
 17 38  1  0  0  0  0
 17 39  1  0  0  0  0
 18 19  1  0  0  0  0
 19 20  1  0  0  0  0
 19 40  1  0  0  0  0
 20 24  1  0  0  0  0
 20 21  1  0  0  0  0
 21 22  1  0  0  0  0
 21 41  1  0  0  0  0
 21 42  1  0  0  0  0
 22 23  1  0  0  0  0
 22 43  1  0  0  0  0
 22 44  1  0  0  0  0
 23 24  1  0  0  0  0
 23 45  1  0  0  0  0
 23 46  1  0  0  0  0
 24 47  1  0  0  0  0
 24 48  1  0  0  0  0
M  END
> <s_m_source_file>
AV-unprocessed.smi

> <i_m_source_file_index>
2505

> <i_lp_mmshare_version>
43012

> <i_f3d_flags>
0

> <s_epik_input>
W0NIMl0xW0NIMl1bQ0hdMWMobltjSF0yKW5bY0hdYzJbTkhdQyg9TylbTkhdW0NAQEhdM1tDQEBIXShbQ0gyXVtDSDJdTzQpW0NASF00QzM1W0NIMl1bQ0gyXVtDSDJdW0NIMl01

> <s_epik_cmdline>
J2VwaWtfcHl0aG9uJywgJy1waCcsICc3LjAnLCAnLXRuJywgJzgnLCAnLW1hJywgJzIwMCcsICctbWV0YWxfYmluZGluZycsICctaW1hZScsICc8aW5maWxlLm1hZT4nLCAnLW9tYWUnLCAnPG91dGZpbGUubWFlPic=

> <r_lp_tautomer_probability>
1

> <r_epik_Ionization_Penalty>
2.6075e-05

> <r_epik_Ionization_Penalty_Charging>
0

> <r_epik_Ionization_Penalty_Neutral>
2.6075e-05

> <r_epik_State_Penalty>
-0

> <r_epik_Charging_Adjusted_Penalty>
0

> <i_epik_Tot_Q>
0

> <i_epik_Tot_abs_Q>
0

> <r_epik_Metal_State_Penalty>
-0

> <b_epik_Metal_Only>
0

> <s_lp_Force_Field>
OPLS_2005

> <r_lp_Energy>
63.7277

> <b_lp_Chiralities_Consistent>
1

> <s_lp_Variant>
AV-unprocessed.smi:2505-3

> <Gold.Version>
5.8.1

> <Gold.Id.Protein>
6NUR|6NUR_protein|mol2

> <Gold.PLP.Fitness>
43.1786

> <Gold.PLP.PLP>
-31.5850

> <Gold.PLP.part.hbond>
-2.8671

> <Gold.PLP.part.metal>
0.0000

> <Gold.PLP.part.buried>
-3.3625

> <Gold.PLP.part.nonpolar>
-25.2063

> <Gold.PLP.part.repulsive>
0.2993

> <Gold.PLP.ligand.clash>
0.0000

> <Gold.PLP.ligand.torsion>
0.1818

> <Gold.PLP.Chemscore.Hbond>
2.8800

> <Gold.PLP.Chemscore.CHOScore>
1.0000

> <Gold.PLP.Chemscore.Metal>
0.0000

> <Gold.Chemscore.Hbonds>
donor molecule, donor type, donor heavy atom, donor atom, acceptor molecule, acceptor atom, score
      L1  H     3    25       P1  7948  1.00
      L1  H    13    33       P1  7948  0.93
      P1  H  7989  7998       L1    11  1.00
      L1  C    12    32       P1  7957  0.99

> <Gold.PLP.Chemscore.Internal.Correction>
0.3173

> <Gold.Rescore>
     Score         DG    S(hbond)    S(metal)    S(lipo)     H(rot)  DE(clash)    DE(int)     intcor
     19.21     -20.76       2.58        0.00      82.74       1.17       0.04       1.51       ----

> <Gold.Chemscore.Fitness>
19.2139

> <Gold.Chemscore.DG>
-20.7646

> <Gold.Chemscore.ZeroCoef>
-5.4800

> <Gold.Chemscore.Hbond>
2.5781

> <Gold.Chemscore.Metal>
0.0000

> <Gold.Chemscore.Lipo>
82.7373

> <Gold.Chemscore.Internal_Hbond>
0.0000

> <Gold.Chemscore.DEClash>
0.0444

> <Gold.Chemscore.DEInternal>
1.5062

> <Gold.Chemscore.Rot>
1.1744

> <Gold.Chemscore.Internal.Correction>
   9.000000E+99

> <Gold.Chemscore.Hbonds>
donor molecule, donor type, donor heavy atom, donor atom, acceptor molecule, acceptor atom, score
      L1  H     3    25       P1  7948  0.97
      L1  H    13    33       P1  7948  0.91
      P1  H  7989  7998       L1    11  0.40

> <Gold.Chemscore.Hbond.Weighted>
-8.6107

> <Gold.Chemscore.Metal.Weighted>
-0.0000

> <Gold.Chemscore.Lipo.Weighted>
-9.6803

> <Gold.Chemscore.Internal_Hbond.Weighted>
0.0000

> <Gold.Chemscore.DEClash.Weighted>
0.0444

> <Gold.Chemscore.DEInternal.Weighted>
1.5062

> <Gold.Chemscore.Rot.Weighted>
3.0064

> <Gold.Chemscore.Internal.Correction.Weighted>
   9.000000E+99

> <Gold.Protein.RotatedTorsions>
[ 6907 6896 6895 6894 ] final -163.89 input  -60.11 | X-H torsion
[ 7974 7965 7964 7962 ] final  -44.77 input  175.53 | X-H torsion
[ 8008 7997 7996 7995 ] final  160.93 input   59.86 | X-H torsion
[ 10167 10162 10161 10158 ] final  -81.97 input  -65.29 | X-H torsion
[ 10718 10713 10712 10709 ] final -132.56 input   66.30 | X-H torsion
[ 10763 10752 10751 10750 ] final  -51.45 input  -60.55 | X-H torsion
[ 11005 11000 10999 10996 ] final  -40.07 input  -57.11 | X-H torsion

> <Gold.Protein.ActiveResidues>
 VAL166  LYS551  ARG553  GLY616  TRP617  ASP618  TYR619  PRO620  LYS621  CYS622 
 ASP623  PHE694  ASN695  SER759  ASP760  ASP761  ALA762  ILE779  LEU786  VAL792 
 PHE793  MET794  SER795  GLU796  ALA797  LYS798  CYS799  TRP800  GLU811  SER814 

> <Gold.Protein.RotatedAtoms>
  151.4032  133.3751  159.2734 H   0  0  0  0  0  0  0  0  0  0  0  0  # atno 6907 bound_to 6896
  150.9418  134.8827  159.7627 H   0  0  0  0  0  0  0  0  0  0  0  0  # atno 6908 bound_to 6896
  152.5074  134.3983  159.9460 H   0  0  0  0  0  0  0  0  0  0  0  0  # atno 6909 bound_to 6896
  145.9887  140.7204  142.9327 H   0  0  0  0  0  0  0  0  0  0  0  0  # atno 7974 bound_to 7965
  156.2138  140.1791  156.7635 H   0  0  0  0  0  0  0  0  0  0  0  0  # atno 8008 bound_to 7997
  154.5761  140.0674  156.9066 H   0  0  0  0  0  0  0  0  0  0  0  0  # atno 8009 bound_to 7997
  155.2585  140.3334  155.4278 H   0  0  0  0  0  0  0  0  0  0  0  0  # atno 8010 bound_to 7997
  140.4363  143.2530  151.8688 H   0  0  0  0  0  0  0  0  0  0  0  0  # atno 10167 bound_to 10162
  156.2358  130.7066  151.0906 H   0  0  0  0  0  0  0  0  0  0  0  0  # atno 10718 bound_to 10713
  154.1268  135.6526  153.4914 H   0  0  0  0  0  0  0  0  0  0  0  0  # atno 10763 bound_to 10752
  153.0208  135.5283  154.7041 H   0  0  0  0  0  0  0  0  0  0  0  0  # atno 10764 bound_to 10752
  154.6265  135.2971  155.0237 H   0  0  0  0  0  0  0  0  0  0  0  0  # atno 10765 bound_to 10752
  141.0148  133.6890  156.2272 H   0  0  0  0  0  0  0  0  0  0  0  0  # atno 11005 bound_to 11000
  144.6882  140.3033  143.7260 LP  0  0  0  0  0  0  0  0  0  0  0  0  # atno 17320 bound_to 7965
  145.7662  139.1841  143.2239 LP  0  0  0  0  0  0  0  0  0  0  0  0  # atno 17321 bound_to 7965
  139.4787  144.5279  151.8709 LP  0  0  0  0  0  0  0  0  0  0  0  0  # atno 17342 bound_to 10162
  140.4369  144.2039  150.5889 LP  0  0  0  0  0  0  0  0  0  0  0  0  # atno 17343 bound_to 10162
  157.7154  131.0712  150.6347 LP  0  0  0  0  0  0  0  0  0  0  0  0  # atno 17370 bound_to 10713
  156.6418  130.4460  149.5750 LP  0  0  0  0  0  0  0  0  0  0  0  0  # atno 17371 bound_to 10713
  140.6673  134.4905  157.5586 LP  0  0  0  0  0  0  0  0  0  0  0  0  # atno 17394 bound_to 11000
  139.9111  134.8344  156.1527 LP  0  0  0  0  0  0  0  0  0  0  0  0  # atno 17395 bound_to 11000

$$$$
