AV-unprocessed.smi:3351|AV-procd|sdf|12947|dock10
  -GOLD-   2272019383D 1   1.00000     0.00000
 Structure written by MMmdl.
 35 36  0  0  0  0  0  0  0  0  2 V2000
  148.8653  140.1694  157.2700 C   0  0  0  0  0  0  0  0  0  0  0  0
  148.7380  141.3381  156.2837 C   0  0  2  0  0  0  0  0  0  0  0  0
  149.2109  140.9311  154.8705 C   0  0  0  0  0  0  0  0  0  0  0  0
  148.1628  140.2797  154.0771 N   0  0  0  0  0  0  0  0  0  0  0  0
  148.1920  139.0209  153.5344 C   0  0  0  0  0  0  0  0  0  0  0  0
  147.0078  138.8565  152.8637 C   0  0  0  0  0  0  0  0  0  0  0  0
  146.3012  140.0167  153.0353 N   0  3  0  0  0  0  0  0  0  0  0  0
  147.0029  140.8787  153.7783 C   0  0  0  0  0  0  0  0  0  0  0  0
  149.5109  142.4719  156.7903 N   0  0  0  0  0  0  0  0  0  0  0  0
  150.7606  142.4132  157.2775 C   0  0  0  0  0  0  0  0  0  0  0  0
  151.4187  141.3731  157.3288 O   0  0  0  0  0  0  0  0  0  0  0  0
  151.3554  143.7343  157.7776 C   0  0  0  0  0  0  0  0  0  0  0  0
  151.7751  143.6601  159.1774 N   0  0  0  0  0  0  0  0  0  0  0  0
  152.7804  142.6807  159.5679 C   0  0  0  0  0  0  0  0  0  0  0  0
  152.7457  142.5539  161.0925 C   0  0  0  0  0  0  0  0  0  0  0  0
  152.0276  144.0715  161.7530 S   0  0  0  0  0  0  0  0  0  0  0  0
  151.3122  144.5163  160.1680 C   0  0  0  0  0  0  0  0  0  0  0  0
  150.5262  145.4536  160.0423 O   0  0  0  0  0  0  0  0  0  0  0  0
  148.2757  139.3130  156.9418 H   0  0  0  0  0  0  0  0  0  0  0  0
  148.5092  140.4516  158.2615 H   0  0  0  0  0  0  0  0  0  0  0  0
  149.9009  139.8418  157.3680 H   0  0  0  0  0  0  0  0  0  0  0  0
  147.6805  141.6052  156.2393 H   0  0  0  0  0  0  0  0  0  0  0  0
  149.5657  141.8007  154.3155 H   0  0  0  0  0  0  0  0  0  0  0  0
  150.0486  140.2351  154.9352 H   0  0  0  0  0  0  0  0  0  0  0  0
  149.0365  138.3567  153.6505 H   0  0  0  0  0  0  0  0  0  0  0  0
  146.6265  138.0233  152.2914 H   0  0  0  0  0  0  0  0  0  0  0  0
  146.6983  141.8687  154.0677 H   0  0  0  0  0  0  0  0  0  0  0  0
  149.0537  143.3725  156.7786 H   0  0  0  0  0  0  0  0  0  0  0  0
  152.2064  143.9928  157.1463 H   0  0  0  0  0  0  0  0  0  0  0  0
  150.6288  144.5405  157.6615 H   0  0  0  0  0  0  0  0  0  0  0  0
  152.6030  141.7170  159.0888 H   0  0  0  0  0  0  0  0  0  0  0  0
  153.7566  143.0396  159.2397 H   0  0  0  0  0  0  0  0  0  0  0  0
  152.1018  141.7233  161.3824 H   0  0  0  0  0  0  0  0  0  0  0  0
  153.7345  142.3702  161.5133 H   0  0  0  0  0  0  0  0  0  0  0  0
  145.3815  140.1997  152.6539 H   0  0  0  0  0  0  0  0  0  0  0  0
  1  2  1  0  0  0  0
  1 19  1  0  0  0  0
  1 20  1  0  0  0  0
  1 21  1  0  0  0  0
  2  3  1  0  0  0  0
  2  9  1  0  0  0  0
  2 22  1  0  0  0  0
  3  4  1  0  0  0  0
  3 23  1  0  0  0  0
  3 24  1  0  0  0  0
  4  8  1  0  0  0  0
  4  5  1  0  0  0  0
  5  6  2  0  0  0  0
  5 25  1  0  0  0  0
  6  7  1  0  0  0  0
  6 26  1  0  0  0  0
  7  8  2  0  0  0  0
  7 35  1  0  0  0  0
  8 27  1  0  0  0  0
  9 10  1  0  0  0  0
  9 28  1  0  0  0  0
 10 11  2  0  0  0  0
 10 12  1  0  0  0  0
 12 13  1  0  0  0  0
 12 29  1  0  0  0  0
 12 30  1  0  0  0  0
 13 17  1  0  0  0  0
 13 14  1  0  0  0  0
 14 15  1  0  0  0  0
 14 31  1  0  0  0  0
 14 32  1  0  0  0  0
 15 16  1  0  0  0  0
 15 33  1  0  0  0  0
 15 34  1  0  0  0  0
 16 17  1  0  0  0  0
 17 18  2  0  0  0  0
M  CHG  1   7   1
M  END
> <s_m_source_file>
AV-unprocessed.smi

> <i_m_source_file_index>
3351

> <i_lp_mmshare_version>
43012

> <i_f3d_flags>
0

> <s_epik_input>
W2NIXTFuW2NIXVtjSF1uMVtDSDJdW0NAQEhdKFtDSDNdKVtOSF1DKD1PKVtDSDJdTjJbQ0gyXVtDSDJdU0MyPU8=

> <s_epik_cmdline>
J2VwaWtfcHl0aG9uJywgJy1waCcsICc3LjAnLCAnLXRuJywgJzgnLCAnLW1hJywgJzIwMCcsICctbWV0YWxfYmluZGluZycsICctaW1hZScsICc8aW5maWxlLm1hZT4nLCAnLW9tYWUnLCAnPG91dGZpbGUubWFlPic=

> <r_lp_tautomer_probability>
1

> <r_epik_Ionization_Penalty>
0.257312

> <r_epik_Ionization_Penalty_Charging>
0

> <r_epik_Ionization_Penalty_Neutral>
0.257312

> <r_epik_State_Penalty>
0.248897

> <r_epik_Charging_Adjusted_Penalty>
0.248897

> <i_epik_Tot_Q>
1

> <i_epik_Tot_abs_Q>
1

> <r_epik_Metal_State_Penalty>
0.538022

> <b_epik_Metal_Only>
0

> <s_lp_Force_Field>
OPLS_2005

> <r_lp_Energy>
4.24041

> <b_lp_Chiralities_Consistent>
1

> <s_lp_Variant>
AV-unprocessed.smi:3351-1

> <Gold.Version>
5.8.1

> <Gold.Id.Protein>
6NUR|6NUR_protein|mol2

> <Gold.PLP.Fitness>
50.8381

> <Gold.PLP.PLP>
-41.9194

> <Gold.PLP.part.hbond>
-3.0363

> <Gold.PLP.part.metal>
0.0000

> <Gold.PLP.part.buried>
-2.8629

> <Gold.PLP.part.nonpolar>
-37.1755

> <Gold.PLP.part.repulsive>
0.2751

> <Gold.PLP.ligand.clash>
0.0000

> <Gold.PLP.ligand.torsion>
0.4973

> <Gold.PLP.Chemscore.Hbond>
3.0000

> <Gold.PLP.Chemscore.CHOScore>
0.2970

> <Gold.PLP.Chemscore.Metal>
0.0000

> <Gold.Chemscore.Hbonds>
donor molecule, donor type, donor heavy atom, donor atom, acceptor molecule, acceptor atom, score
      L1  H     7    35       P1 10175  2.00
      L1  H     9    28       P1  8028  0.77
      L1  C     5    25       P1  7948  0.29

> <Gold.PLP.Chemscore.Internal.Correction>
0.0224

> <Gold.Rescore>
     Score         DG    S(hbond)    S(metal)    S(lipo)     H(rot)  DE(clash)    DE(int)     intcor
     11.68     -14.45       1.96        0.00      73.51       2.41       0.00       2.77       ----

> <Gold.Chemscore.Fitness>
11.6792

> <Gold.Chemscore.DG>
-14.4505

> <Gold.Chemscore.ZeroCoef>
-5.4800

> <Gold.Chemscore.Hbond>
1.9611

> <Gold.Chemscore.Metal>
0.0000

> <Gold.Chemscore.Lipo>
73.5092

> <Gold.Chemscore.Internal_Hbond>
0.0000

> <Gold.Chemscore.DEClash>
0.0000

> <Gold.Chemscore.DEInternal>
2.7713

> <Gold.Chemscore.Rot>
2.4141

> <Gold.Chemscore.Internal.Correction>
   9.000000E+99

> <Gold.Chemscore.Hbonds>
donor molecule, donor type, donor heavy atom, donor atom, acceptor molecule, acceptor atom, score
      L1  H     7    35       P1 10175  0.93
      L1  H     9    28       P1  8028  0.69

> <Gold.Chemscore.Hbond.Weighted>
-6.5500

> <Gold.Chemscore.Metal.Weighted>
-0.0000

> <Gold.Chemscore.Lipo.Weighted>
-8.6006

> <Gold.Chemscore.Internal_Hbond.Weighted>
0.0000

> <Gold.Chemscore.DEClash.Weighted>
0.0000

> <Gold.Chemscore.DEInternal.Weighted>
2.7713

> <Gold.Chemscore.Rot.Weighted>
6.1800

> <Gold.Chemscore.Internal.Correction.Weighted>
   9.000000E+99

> <Gold.Protein.RotatedTorsions>
[ 6907 6896 6895 6894 ] final   44.90 input  -60.11 | X-H torsion
[ 7974 7965 7964 7962 ] final   45.25 input  175.53 | X-H torsion
[ 8008 7997 7996 7995 ] final -103.72 input   59.86 | X-H torsion
[ 10167 10162 10161 10158 ] final   78.73 input  -65.29 | X-H torsion
[ 10718 10713 10712 10709 ] final  107.08 input   66.30 | X-H torsion
[ 10763 10752 10751 10750 ] final   17.25 input  -60.55 | X-H torsion
[ 11005 11000 10999 10996 ] final   68.13 input  -57.11 | X-H torsion

> <Gold.Protein.ActiveResidues>
 VAL166  LYS551  ARG553  GLY616  TRP617  ASP618  TYR619  PRO620  LYS621  CYS622 
 ASP623  PHE694  ASN695  SER759  ASP760  ASP761  ALA762  ILE779  LEU786  VAL792 
 PHE793  MET794  SER795  GLU796  ALA797  LYS798  CYS799  TRP800  GLU811  SER814 

> <Gold.Protein.RotatedAtoms>
  152.2381  134.8256  160.0464 H   0  0  0  0  0  0  0  0  0  0  0  0  # atno 6907 bound_to 6896
  151.8980  133.3526  159.3829 H   0  0  0  0  0  0  0  0  0  0  0  0  # atno 6908 bound_to 6896
  150.7045  134.4782  159.5502 H   0  0  0  0  0  0  0  0  0  0  0  0  # atno 6909 bound_to 6896
  146.0496  139.4985  142.9726 H   0  0  0  0  0  0  0  0  0  0  0  0  # atno 7974 bound_to 7965
  154.8750  140.0421  157.1748 H   0  0  0  0  0  0  0  0  0  0  0  0  # atno 8008 bound_to 7997
  154.8699  140.2957  155.5467 H   0  0  0  0  0  0  0  0  0  0  0  0  # atno 8009 bound_to 7997
  156.2999  140.2431  156.3686 H   0  0  0  0  0  0  0  0  0  0  0  0  # atno 8010 bound_to 7997
  139.9679  144.5915  150.8012 H   0  0  0  0  0  0  0  0  0  0  0  0  # atno 10167 bound_to 10162
  157.6643  131.0865  150.6103 H   0  0  0  0  0  0  0  0  0  0  0  0  # atno 10718 bound_to 10713
  153.1356  135.6749  153.9108 H   0  0  0  0  0  0  0  0  0  0  0  0  # atno 10763 bound_to 10752
  153.8581  135.3085  155.3437 H   0  0  0  0  0  0  0  0  0  0  0  0  # atno 10764 bound_to 10752
  154.7744  135.4922  153.9797 H   0  0  0  0  0  0  0  0  0  0  0  0  # atno 10765 bound_to 10752
  139.9729  134.6870  156.0410 H   0  0  0  0  0  0  0  0  0  0  0  0  # atno 11005 bound_to 11000
  145.6746  141.0207  143.1639 LP  0  0  0  0  0  0  0  0  0  0  0  0  # atno 17320 bound_to 7965
  144.7116  139.8351  143.7413 LP  0  0  0  0  0  0  0  0  0  0  0  0  # atno 17321 bound_to 7965
  140.7532  143.3004  151.3096 LP  0  0  0  0  0  0  0  0  0  0  0  0  # atno 17342 bound_to 10162
  139.6504  144.0373  152.2622 LP  0  0  0  0  0  0  0  0  0  0  0  0  # atno 17343 bound_to 10162
  156.6404  130.4457  149.5754 LP  0  0  0  0  0  0  0  0  0  0  0  0  # atno 17370 bound_to 10713
  156.2214  130.6739  151.1371 LP  0  0  0  0  0  0  0  0  0  0  0  0  # atno 17371 bound_to 10713
  141.1408  133.6565  156.3725 LP  0  0  0  0  0  0  0  0  0  0  0  0  # atno 17394 bound_to 11000
  140.5255  134.6263  157.5332 LP  0  0  0  0  0  0  0  0  0  0  0  0  # atno 17395 bound_to 11000

$$$$
