AV-unprocessed.smi:2471|AV-procd|sdf|9740|dock5
  -GOLD-   2272013383D 1   1.00000     0.00000
 Structure written by MMmdl.
 40 41  0  0  0  0  0  0  0  0  1 V2000
  153.4745  141.1975  160.1983 C   0  0  0  0  0  0  0  0  0  0  0  0
  152.7395  142.4027  159.6500 C   0  0  0  0  0  0  0  0  0  0  0  0
  152.8754  143.6692  160.2511 C   0  0  0  0  0  0  0  0  0  0  0  0
  152.1694  144.7481  159.6895 C   0  0  0  0  0  0  0  0  0  0  0  0
  151.3622  144.5178  158.5586 C   0  0  0  0  0  0  0  0  0  0  0  0
  151.2806  143.2154  158.0164 C   0  0  0  0  0  0  0  0  0  0  0  0
  150.4416  143.0875  156.8772 N   0  0  0  0  0  0  0  0  0  0  0  0
  150.2529  142.0045  156.1025 C   0  0  0  0  0  0  0  0  0  0  0  0
  150.7881  140.9077  156.2677 O   0  0  0  0  0  0  0  0  0  0  0  0
  149.3920  142.2619  155.1071 N   0  0  0  0  0  0  0  0  0  0  0  0
  148.9691  141.2944  154.0988 C   0  0  0  0  0  0  0  0  0  0  0  0
  148.0637  140.1826  154.6817 C   0  0  1  0  0  0  0  0  0  0  0  0
  146.7609  140.7726  155.2718 C   0  0  0  0  0  0  0  0  0  0  0  0
  145.8278  139.6845  155.8247 C   0  0  0  0  0  0  0  0  0  0  0  0
  145.4977  138.6405  154.7498 C   0  0  0  0  0  0  0  0  0  0  0  0
  146.7818  138.0234  154.1799 C   0  0  0  0  0  0  0  0  0  0  0  0
  147.7282  139.1033  153.6223 C   0  0  2  0  0  0  0  0  0  0  0  0
  148.9081  138.4552  153.1897 O   0  0  0  0  0  0  0  0  0  0  0  0
  151.9666  142.1818  158.5650 N   0  0  0  0  0  0  0  0  0  0  0  0
  153.8980  141.4070  161.1810 H   0  0  0  0  0  0  0  0  0  0  0  0
  154.2874  140.9154  159.5288 H   0  0  0  0  0  0  0  0  0  0  0  0
  152.7979  140.3476  160.2955 H   0  0  0  0  0  0  0  0  0  0  0  0
  153.5034  143.8130  161.1180 H   0  0  0  0  0  0  0  0  0  0  0  0
  152.2451  145.7364  160.1183 H   0  0  0  0  0  0  0  0  0  0  0  0
  150.8131  145.3363  158.1157 H   0  0  0  0  0  0  0  0  0  0  0  0
  149.9290  143.9179  156.6209 H   0  0  0  0  0  0  0  0  0  0  0  0
  148.9980  143.1892  155.0429 H   0  0  0  0  0  0  0  0  0  0  0  0
  148.4369  141.8340  153.3151 H   0  0  0  0  0  0  0  0  0  0  0  0
  149.8541  140.8680  153.6242 H   0  0  0  0  0  0  0  0  0  0  0  0
  148.6031  139.6924  155.4942 H   0  0  0  0  0  0  0  0  0  0  0  0
  146.9907  141.4779  156.0708 H   0  0  0  0  0  0  0  0  0  0  0  0
  146.2352  141.3408  154.5031 H   0  0  0  0  0  0  0  0  0  0  0  0
  146.2999  139.1964  156.6784 H   0  0  0  0  0  0  0  0  0  0  0  0
  144.9083  140.1375  156.1964 H   0  0  0  0  0  0  0  0  0  0  0  0
  144.8639  137.8597  155.1710 H   0  0  0  0  0  0  0  0  0  0  0  0
  144.9253  139.1064  153.9467 H   0  0  0  0  0  0  0  0  0  0  0  0
  147.2869  137.4581  154.9651 H   0  0  0  0  0  0  0  0  0  0  0  0
  146.5291  137.3063  153.3980 H   0  0  0  0  0  0  0  0  0  0  0  0
  147.2634  139.5754  152.7555 H   0  0  0  0  0  0  0  0  0  0  0  0
  148.6678  137.6596  152.7398 H   0  0  0  0  0  0  0  0  0  0  0  0
  1  2  1  0  0  0  0
  1 20  1  0  0  0  0
  1 21  1  0  0  0  0
  1 22  1  0  0  0  0
  2 19  1  0  0  0  0
  2  3  2  0  0  0  0
  3  4  1  0  0  0  0
  3 23  1  0  0  0  0
  4  5  2  0  0  0  0
  4 24  1  0  0  0  0
  5  6  1  0  0  0  0
  5 25  1  0  0  0  0
  6  7  1  0  0  0  0
  6 19  2  0  0  0  0
  7  8  1  0  0  0  0
  7 26  1  0  0  0  0
  8  9  2  0  0  0  0
  8 10  1  0  0  0  0
 10 11  1  0  0  0  0
 10 27  1  0  0  0  0
 11 12  1  0  0  0  0
 11 28  1  0  0  0  0
 11 29  1  0  0  0  0
 12 17  1  0  0  0  0
 12 13  1  0  0  0  0
 12 30  1  0  0  0  0
 13 14  1  0  0  0  0
 13 31  1  0  0  0  0
 13 32  1  0  0  0  0
 14 15  1  0  0  0  0
 14 33  1  0  0  0  0
 14 34  1  0  0  0  0
 15 16  1  0  0  0  0
 15 35  1  0  0  0  0
 15 36  1  0  0  0  0
 16 17  1  0  0  0  0
 16 37  1  0  0  0  0
 16 38  1  0  0  0  0
 17 18  1  0  0  0  0
 17 39  1  0  0  0  0
 18 40  1  0  0  0  0
M  END
> <s_m_source_file>
AV-unprocessed.smi

> <i_m_source_file_index>
2471

> <i_lp_mmshare_version>
43012

> <i_f3d_flags>
0

> <s_epik_input>
W0NIM11jMVtjSF1bY0hdW2NIXWMobjEpW05IXUMoPU8pW05IXVtDSDJdW0NAQEhdMltDSDJdW0NIMl1bQ0gyXVtDSDJdW0NASF0yW09IXQ==

> <s_epik_cmdline>
J2VwaWtfcHl0aG9uJywgJy1waCcsICc3LjAnLCAnLXRuJywgJzgnLCAnLW1hJywgJzIwMCcsICctbWV0YWxfYmluZGluZycsICctaW1hZScsICc8aW5maWxlLm1hZT4nLCAnLW9tYWUnLCAnPG91dGZpbGUubWFlPic=

> <r_lp_tautomer_probability>
1

> <r_epik_Ionization_Penalty>
8.52237e-05

> <r_epik_Ionization_Penalty_Charging>
0

> <r_epik_Ionization_Penalty_Neutral>
8.52237e-05

> <r_epik_State_Penalty>
-0

> <r_epik_Charging_Adjusted_Penalty>
0

> <i_epik_Tot_Q>
0

> <i_epik_Tot_abs_Q>
0

> <r_epik_Metal_State_Penalty>
-0

> <b_epik_Metal_Only>
0

> <s_lp_Force_Field>
OPLS_2005

> <r_lp_Energy>
14.0215

> <b_lp_Chiralities_Consistent>
1

> <s_lp_Variant>
AV-unprocessed.smi:2471-4

> <Gold.Version>
5.8.1

> <Gold.Id.Protein>
6NUR|6NUR_protein|mol2

> <Gold.PLP.Fitness>
45.1775

> <Gold.PLP.PLP>
-36.2883

> <Gold.PLP.part.hbond>
-4.0000

> <Gold.PLP.part.metal>
0.0000

> <Gold.PLP.part.buried>
-3.4591

> <Gold.PLP.part.nonpolar>
-28.9607

> <Gold.PLP.part.repulsive>
0.2794

> <Gold.PLP.ligand.clash>
0.0000

> <Gold.PLP.ligand.torsion>
0.0578

> <Gold.PLP.Chemscore.Hbond>
3.0000

> <Gold.PLP.Chemscore.CHOScore>
0.0000

> <Gold.PLP.Chemscore.Metal>
0.0000

> <Gold.Chemscore.Hbonds>
donor molecule, donor type, donor heavy atom, donor atom, acceptor molecule, acceptor atom, score
      L1  H     7    26       P1  8028  1.00
      L1  H    10    27       P1  8028  0.99
      L1  H    18    40       P1  7948  1.00

> <Gold.PLP.Chemscore.Internal.Correction>
0.0048

> <Gold.Rescore>
     Score         DG    S(hbond)    S(metal)    S(lipo)     H(rot)  DE(clash)    DE(int)     intcor
     19.34     -20.76       2.92        0.00      85.11       1.73       0.05       1.37       ----

> <Gold.Chemscore.Fitness>
19.3378

> <Gold.Chemscore.DG>
-20.7551

> <Gold.Chemscore.ZeroCoef>
-5.4800

> <Gold.Chemscore.Hbond>
2.9210

> <Gold.Chemscore.Metal>
0.0000

> <Gold.Chemscore.Lipo>
85.1069

> <Gold.Chemscore.Internal_Hbond>
0.0000

> <Gold.Chemscore.DEClash>
0.0464

> <Gold.Chemscore.DEInternal>
1.3709

> <Gold.Chemscore.Rot>
1.7339

> <Gold.Chemscore.Internal.Correction>
   9.000000E+99

> <Gold.Chemscore.Hbonds>
donor molecule, donor type, donor heavy atom, donor atom, acceptor molecule, acceptor atom, score
      L1  H     7    26       P1  8028  0.96
      L1  H    10    27       P1  8028  0.94
      L1  H    18    40       P1  7948  0.97

> <Gold.Chemscore.Hbond.Weighted>
-9.7563

> <Gold.Chemscore.Metal.Weighted>
-0.0000

> <Gold.Chemscore.Lipo.Weighted>
-9.9575

> <Gold.Chemscore.Internal_Hbond.Weighted>
0.0000

> <Gold.Chemscore.DEClash.Weighted>
0.0464

> <Gold.Chemscore.DEInternal.Weighted>
1.3709

> <Gold.Chemscore.Rot.Weighted>
4.4387

> <Gold.Chemscore.Internal.Correction.Weighted>
   9.000000E+99

> <Gold.Protein.RotatedTorsions>
[ 6907 6896 6895 6894 ] final  -79.86 input  -60.11 | X-H torsion
[ 7974 7965 7964 7962 ] final -144.92 input  175.53 | X-H torsion
[ 8008 7997 7996 7995 ] final   65.83 input   59.86 | X-H torsion
[ 10167 10162 10161 10158 ] final -144.61 input  -65.29 | X-H torsion
[ 10718 10713 10712 10709 ] final   95.43 input   66.30 | X-H torsion
[ 10763 10752 10751 10750 ] final  -51.64 input  -60.55 | X-H torsion
[ 11005 11000 10999 10996 ] final    8.15 input  -57.11 | X-H torsion

> <Gold.Protein.ActiveResidues>
 VAL166  LYS551  ARG553  GLY616  TRP617  ASP618  TYR619  PRO620  LYS621  CYS622 
 ASP623  PHE694  ASN695  SER759  ASP760  ASP761  ALA762  ILE779  LEU786  VAL792 
 PHE793  MET794  SER795  GLU796  ALA797  LYS798  CYS799  TRP800  GLU811  SER814 

> <Gold.Protein.RotatedAtoms>
  150.6941  134.4056  159.5138 H   0  0  0  0  0  0  0  0  0  0  0  0  # atno 6907 bound_to 6896
  152.1823  134.8741  160.0534 H   0  0  0  0  0  0  0  0  0  0  0  0  # atno 6908 bound_to 6896
  151.9727  133.3696  159.4114 H   0  0  0  0  0  0  0  0  0  0  0  0  # atno 6909 bound_to 6896
  144.8263  140.5649  143.5545 H   0  0  0  0  0  0  0  0  0  0  0  0  # atno 7974 bound_to 7965
  155.6679  140.3497  155.4807 H   0  0  0  0  0  0  0  0  0  0  0  0  # atno 8008 bound_to 7997
  155.9713  140.1156  157.0832 H   0  0  0  0  0  0  0  0  0  0  0  0  # atno 8009 bound_to 7997
  154.4167  140.1156  156.5297 H   0  0  0  0  0  0  0  0  0  0  0  0  # atno 8010 bound_to 7997
  139.7882  143.8003  152.2647 H   0  0  0  0  0  0  0  0  0  0  0  0  # atno 10167 bound_to 10162
  157.6938  131.0545  150.4338 H   0  0  0  0  0  0  0  0  0  0  0  0  # atno 10718 bound_to 10713
  154.1299  135.6521  153.4920 H   0  0  0  0  0  0  0  0  0  0  0  0  # atno 10763 bound_to 10752
  153.0198  135.5290  154.7011 H   0  0  0  0  0  0  0  0  0  0  0  0  # atno 10764 bound_to 10752
  154.6243  135.2968  155.0260 H   0  0  0  0  0  0  0  0  0  0  0  0  # atno 10765 bound_to 10752
  140.5403  134.0381  155.7902 H   0  0  0  0  0  0  0  0  0  0  0  0  # atno 11005 bound_to 11000
  145.4993  139.1484  143.3666 LP  0  0  0  0  0  0  0  0  0  0  0  0  # atno 17320 bound_to 7965
  146.2568  140.5132  142.8870 LP  0  0  0  0  0  0  0  0  0  0  0  0  # atno 17321 bound_to 7965
  139.8086  144.7345  150.9727 LP  0  0  0  0  0  0  0  0  0  0  0  0  # atno 17342 bound_to 10162
  140.7820  143.4273  151.0749 LP  0  0  0  0  0  0  0  0  0  0  0  0  # atno 17343 bound_to 10162
  156.4702  130.4051  149.6522 LP  0  0  0  0  0  0  0  0  0  0  0  0  # atno 17370 bound_to 10713
  156.3605  130.7479  151.2451 LP  0  0  0  0  0  0  0  0  0  0  0  0  # atno 17371 bound_to 10713
  141.1231  133.9428  157.2690 LP  0  0  0  0  0  0  0  0  0  0  0  0  # atno 17394 bound_to 11000
  139.9508  135.0176  156.8987 LP  0  0  0  0  0  0  0  0  0  0  0  0  # atno 17395 bound_to 11000

$$$$
