AV-unprocessed.smi:2146|AV-procd|sdf|8740|dock9
  -GOLD-   2272011513D 1   1.00000     0.00000
 Structure written by MMmdl.
 45 46  0  0  0  0  0  0  0  0  2 V2000
  146.9898  141.0658  156.4065 C   0  0  0  0  0  0  0  0  0  0  0  0
  146.2036  140.7529  155.1088 C   0  0  2  0  0  0  0  0  0  0  0  0
  147.1851  140.5256  153.9308 C   0  0  0  0  0  0  0  0  0  0  0  0
  148.4411  139.9246  154.3656 N   0  0  0  0  0  0  0  0  0  0  0  0
  149.5597  140.6130  154.6340 C   0  0  0  0  0  0  0  0  0  0  0  0
  149.6352  141.8377  154.5242 O   0  0  0  0  0  0  0  0  0  0  0  0
  150.7657  139.7767  155.0877 C   0  0  0  0  0  0  0  0  0  0  0  0
  151.2334  140.0974  156.4472 N   0  0  0  0  0  0  0  0  0  0  0  0
  151.0557  141.4234  156.8885 C   0  0  0  0  0  0  0  0  0  0  0  0
  151.4292  141.8456  158.1120 C   0  0  0  0  0  0  0  0  0  0  0  0
  151.2760  143.2970  158.5401 C   0  0  0  0  0  0  0  0  0  0  0  0
  149.9927  143.6109  158.7193 F   0  0  0  0  0  0  0  0  0  0  0  0
  151.9281  143.5354  159.6788 F   0  0  0  0  0  0  0  0  0  0  0  0
  151.7728  144.1013  157.6014 F   0  0  0  0  0  0  0  0  0  0  0  0
  152.0663  140.8628  158.9663 C   0  0  0  0  0  0  0  0  0  0  0  0
  152.2488  139.5918  158.5580 C   0  0  0  0  0  0  0  0  0  0  0  0
  151.8159  139.1425  157.2328 C   0  0  0  0  0  0  0  0  0  0  0  0
  151.9676  137.9815  156.8524 O   0  0  0  0  0  0  0  0  0  0  0  0
  145.1952  141.8083  154.7591 N   0  3  0  0  0  0  0  0  0  0  0  0
  144.2441  142.0866  155.8709 C   0  0  0  0  0  0  0  0  0  0  0  0
  143.1812  143.1146  155.4506 C   0  0  0  0  0  0  0  0  0  0  0  0
  143.8197  144.3137  155.0396 O   0  0  0  0  0  0  0  0  0  0  0  0
  144.6512  144.0968  153.9101 C   0  0  0  0  0  0  0  0  0  0  0  0
  145.7630  143.0929  154.2616 C   0  0  0  0  0  0  0  0  0  0  0  0
  147.7406  140.3062  156.6225 H   0  0  0  0  0  0  0  0  0  0  0  0
  146.3414  141.0887  157.2824 H   0  0  0  0  0  0  0  0  0  0  0  0
  147.5070  142.0236  156.3376 H   0  0  0  0  0  0  0  0  0  0  0  0
  145.6592  139.8241  155.2869 H   0  0  0  0  0  0  0  0  0  0  0  0
  146.7553  139.8697  153.1754 H   0  0  0  0  0  0  0  0  0  0  0  0
  147.4004  141.4750  153.4375 H   0  0  0  0  0  0  0  0  0  0  0  0
  148.4588  138.9207  154.4771 H   0  0  0  0  0  0  0  0  0  0  0  0
  150.5071  138.7185  155.0168 H   0  0  0  0  0  0  0  0  0  0  0  0
  151.5724  139.9191  154.3670 H   0  0  0  0  0  0  0  0  0  0  0  0
  150.5919  142.0790  156.1659 H   0  0  0  0  0  0  0  0  0  0  0  0
  152.3981  141.1487  159.9536 H   0  0  0  0  0  0  0  0  0  0  0  0
  152.7238  138.8854  159.2228 H   0  0  0  0  0  0  0  0  0  0  0  0
  143.7309  141.1823  156.1907 H   0  0  0  0  0  0  0  0  0  0  0  0
  144.7939  142.4603  156.7362 H   0  0  0  0  0  0  0  0  0  0  0  0
  142.5529  142.7233  154.6486 H   0  0  0  0  0  0  0  0  0  0  0  0
  142.5228  143.3378  156.2904 H   0  0  0  0  0  0  0  0  0  0  0  0
  144.0563  143.7405  153.0675 H   0  0  0  0  0  0  0  0  0  0  0  0
  145.0887  145.0487  153.6084 H   0  0  0  0  0  0  0  0  0  0  0  0
  146.4259  143.5176  155.0172 H   0  0  0  0  0  0  0  0  0  0  0  0
  146.3522  142.9352  153.3590 H   0  0  0  0  0  0  0  0  0  0  0  0
  144.6506  141.4356  153.9942 H   0  0  0  0  0  0  0  0  0  0  0  0
  1  2  1  0  0  0  0
  1 25  1  0  0  0  0
  1 26  1  0  0  0  0
  1 27  1  0  0  0  0
  2  3  1  0  0  0  0
  2 19  1  0  0  0  0
  2 28  1  0  0  0  0
  3  4  1  0  0  0  0
  3 29  1  0  0  0  0
  3 30  1  0  0  0  0
  4  5  1  0  0  0  0
  4 31  1  0  0  0  0
  5  6  2  0  0  0  0
  5  7  1  0  0  0  0
  7  8  1  0  0  0  0
  7 32  1  0  0  0  0
  7 33  1  0  0  0  0
  8 17  1  0  0  0  0
  8  9  1  0  0  0  0
  9 10  2  0  0  0  0
  9 34  1  0  0  0  0
 10 11  1  0  0  0  0
 10 15  1  0  0  0  0
 11 12  1  0  0  0  0
 11 13  1  0  0  0  0
 11 14  1  0  0  0  0
 15 16  2  0  0  0  0
 15 35  1  0  0  0  0
 16 17  1  0  0  0  0
 16 36  1  0  0  0  0
 17 18  2  0  0  0  0
 19 24  1  0  0  0  0
 19 20  1  0  0  0  0
 19 45  1  0  0  0  0
 20 21  1  0  0  0  0
 20 37  1  0  0  0  0
 20 38  1  0  0  0  0
 21 22  1  0  0  0  0
 21 39  1  0  0  0  0
 21 40  1  0  0  0  0
 22 23  1  0  0  0  0
 23 24  1  0  0  0  0
 23 41  1  0  0  0  0
 23 42  1  0  0  0  0
 24 43  1  0  0  0  0
 24 44  1  0  0  0  0
M  CHG  1  19   1
M  END
> <s_m_source_file>
AV-unprocessed.smi

> <i_m_source_file_index>
2146

> <i_lp_mmshare_version>
43012

> <i_f3d_flags>
0

> <s_epik_input>
W0NIMl0xW0NIMl1PW0NIMl1bQ0gyXU4xW0NASF0oW0NIM10pW0NIMl1bTkhdQyg9TylbQ0gyXW4yW2NIXWMoQyhGKShGKUYpW2NIXVtjSF1jMj1P

> <s_epik_cmdline>
J2VwaWtfcHl0aG9uJywgJy1waCcsICc3LjAnLCAnLXRuJywgJzgnLCAnLW1hJywgJzIwMCcsICctbWV0YWxfYmluZGluZycsICctaW1hZScsICc8aW5maWxlLm1hZT4nLCAnLW9tYWUnLCAnPG91dGZpbGUubWFlPic=

> <r_lp_tautomer_probability>
1

> <r_epik_Ionization_Penalty>
0.656654

> <r_epik_Ionization_Penalty_Charging>
0.656653

> <r_epik_Ionization_Penalty_Neutral>
9.12373e-08

> <r_epik_State_Penalty>
0.675641

> <r_epik_Charging_Adjusted_Penalty>
1.33229

> <i_epik_Tot_Q>
1

> <i_epik_Tot_abs_Q>
1

> <r_epik_Metal_State_Penalty>
0.675692

> <b_epik_Metal_Only>
0

> <s_lp_Force_Field>
OPLS_2005

> <r_lp_Energy>
33.6044

> <b_lp_Chiralities_Consistent>
1

> <s_lp_Variant>
AV-unprocessed.smi:2146-3

> <Gold.Version>
5.8.1

> <Gold.Id.Protein>
6NUR|6NUR_protein|mol2

> <Gold.PLP.Fitness>
44.5558

> <Gold.PLP.PLP>
-39.9464

> <Gold.PLP.part.hbond>
-2.9601

> <Gold.PLP.part.metal>
0.0000

> <Gold.PLP.part.buried>
-0.2652

> <Gold.PLP.part.nonpolar>
-37.2470

> <Gold.PLP.part.repulsive>
0.3744

> <Gold.PLP.ligand.clash>
0.0000

> <Gold.PLP.ligand.torsion>
1.1192

> <Gold.PLP.Chemscore.Hbond>
2.2490

> <Gold.PLP.Chemscore.CHOScore>
0.0000

> <Gold.PLP.Chemscore.Metal>
0.0000

> <Gold.Chemscore.Hbonds>
donor molecule, donor type, donor heavy atom, donor atom, acceptor molecule, acceptor atom, score
      L1  H    19    45       P1 10175  2.00
      P1  H  8011  8017       L1     6  0.16

> <Gold.PLP.Chemscore.Internal.Correction>
0.1009

> <Gold.Rescore>
     Score         DG    S(hbond)    S(metal)    S(lipo)     H(rot)  DE(clash)    DE(int)     intcor
      8.16     -11.33       0.89        0.00      72.19       2.18       0.87       2.30       ----

> <Gold.Chemscore.Fitness>
8.1617

> <Gold.Chemscore.DG>
-11.3273

> <Gold.Chemscore.ZeroCoef>
-5.4800

> <Gold.Chemscore.Hbond>
0.8932

> <Gold.Chemscore.Metal>
0.0000

> <Gold.Chemscore.Lipo>
72.1904

> <Gold.Chemscore.Internal_Hbond>
0.0000

> <Gold.Chemscore.DEClash>
0.8656

> <Gold.Chemscore.DEInternal>
2.3000

> <Gold.Chemscore.Rot>
2.1805

> <Gold.Chemscore.Internal.Correction>
   9.000000E+99

> <Gold.Chemscore.Hbonds>
donor molecule, donor type, donor heavy atom, donor atom, acceptor molecule, acceptor atom, score
      L1  H    19    45       P1 10175  0.33
      P1  H  8011  8017       L1     6  0.12

> <Gold.Chemscore.Hbond.Weighted>
-2.9833

> <Gold.Chemscore.Metal.Weighted>
-0.0000

> <Gold.Chemscore.Lipo.Weighted>
-8.4463

> <Gold.Chemscore.Internal_Hbond.Weighted>
0.0000

> <Gold.Chemscore.DEClash.Weighted>
0.8656

> <Gold.Chemscore.DEInternal.Weighted>
2.3000

> <Gold.Chemscore.Rot.Weighted>
5.5822

> <Gold.Chemscore.Internal.Correction.Weighted>
   9.000000E+99

> <Gold.Protein.RotatedTorsions>
[ 6907 6896 6895 6894 ] final  122.39 input  -60.11 | X-H torsion
[ 7974 7965 7964 7962 ] final -152.94 input  175.53 | X-H torsion
[ 8008 7997 7996 7995 ] final   21.63 input   59.86 | X-H torsion
[ 10167 10162 10161 10158 ] final   34.04 input  -65.29 | X-H torsion
[ 10718 10713 10712 10709 ] final   60.15 input   66.30 | X-H torsion
[ 10763 10752 10751 10750 ] final -143.67 input  -60.55 | X-H torsion
[ 11005 11000 10999 10996 ] final    4.83 input  -57.11 | X-H torsion

> <Gold.Protein.ActiveResidues>
 VAL166  LYS551  ARG553  GLY616  TRP617  ASP618  TYR619  PRO620  LYS621  CYS622 
 ASP623  PHE694  ASN695  SER759  ASP760  ASP761  ALA762  ILE779  LEU786  VAL792 
 PHE793  MET794  SER795  GLU796  ALA797  LYS798  CYS799  TRP800  GLU811  SER814 

> <Gold.Protein.RotatedAtoms>
  152.4247  133.7174  159.6513 H   0  0  0  0  0  0  0  0  0  0  0  0  # atno 6907 bound_to 6896
  150.8123  133.8389  159.3182 H   0  0  0  0  0  0  0  0  0  0  0  0  # atno 6908 bound_to 6896
  151.6095  135.1043  160.0129 H   0  0  0  0  0  0  0  0  0  0  0  0  # atno 6909 bound_to 6896
  144.7767  140.4594  143.5868 H   0  0  0  0  0  0  0  0  0  0  0  0  # atno 7974 bound_to 7965
  154.9534  140.3068  155.5064 H   0  0  0  0  0  0  0  0  0  0  0  0  # atno 8008 bound_to 7997
  156.2985  140.2314  156.4552 H   0  0  0  0  0  0  0  0  0  0  0  0  # atno 8009 bound_to 7997
  154.8033  140.0433  157.1277 H   0  0  0  0  0  0  0  0  0  0  0  0  # atno 8010 bound_to 7997
  140.4352  144.1267  150.6165 H   0  0  0  0  0  0  0  0  0  0  0  0  # atno 10167 bound_to 10162
  157.5731  130.8923  149.9301 H   0  0  0  0  0  0  0  0  0  0  0  0  # atno 10718 bound_to 10713
  154.8460  135.3461  154.6224 H   0  0  0  0  0  0  0  0  0  0  0  0  # atno 10763 bound_to 10752
  153.6833  135.6979  153.5116 H   0  0  0  0  0  0  0  0  0  0  0  0  # atno 10764 bound_to 10752
  153.2651  135.4310  155.0889 H   0  0  0  0  0  0  0  0  0  0  0  0  # atno 10765 bound_to 10752
  140.5776  134.0044  155.8034 H   0  0  0  0  0  0  0  0  0  0  0  0  # atno 11005 bound_to 11000
  145.6166  139.1519  143.3046 LP  0  0  0  0  0  0  0  0  0  0  0  0  # atno 17320 bound_to 7965
  146.1951  140.6279  142.9128 LP  0  0  0  0  0  0  0  0  0  0  0  0  # atno 17321 bound_to 7965
  140.4382  143.2538  151.9508 LP  0  0  0  0  0  0  0  0  0  0  0  0  # atno 17342 bound_to 10162
  139.4786  144.5680  151.8134 LP  0  0  0  0  0  0  0  0  0  0  0  0  # atno 17343 bound_to 10162
  156.0776  130.3677  150.0646 LP  0  0  0  0  0  0  0  0  0  0  0  0  # atno 17370 bound_to 10713
  156.8796  130.9552  151.3601 LP  0  0  0  0  0  0  0  0  0  0  0  0  # atno 17371 bound_to 10713
  141.1017  133.9758  157.3068 LP  0  0  0  0  0  0  0  0  0  0  0  0  # atno 17394 bound_to 11000
  139.9332  135.0198  156.8471 LP  0  0  0  0  0  0  0  0  0  0  0  0  # atno 17395 bound_to 11000

$$$$
