AV-unprocessed.smi:2362|AV-procd|sdf|9414|dock2
  -GOLD-   2272013 53D 1   1.00000     0.00000
 Structure written by MMmdl.
 45 46  0  0  0  0  0  0  0  0  2 V2000
  151.9003  145.9382  160.1645 C   0  0  0  0  0  0  0  0  0  0  0  0
  151.8221  144.6250  159.4142 C   0  0  0  0  0  0  0  0  0  0  0  0
  152.7721  143.6070  159.6224 C   0  0  0  0  0  0  0  0  0  0  0  0
  152.6489  142.4056  158.8980 C   0  0  0  0  0  0  0  0  0  0  0  0
  151.5826  142.2506  157.9840 C   0  0  0  0  0  0  0  0  0  0  0  0
  151.5458  141.0018  157.3076 N   0  0  0  0  0  0  0  0  0  0  0  0
  150.8302  140.6701  156.2187 C   0  0  0  0  0  0  0  0  0  0  0  0
  150.0956  141.4325  155.5901 O   0  0  0  0  0  0  0  0  0  0  0  0
  151.0026  139.3793  155.8943 N   0  0  0  0  0  0  0  0  0  0  0  0
  150.3921  138.6927  154.7543 C   0  0  1  0  0  0  0  0  0  0  0  0
  151.4450  137.7982  154.0862 C   0  0  0  0  0  0  0  0  0  0  0  0
  149.1529  137.8722  155.1830 C   0  0  0  0  0  0  0  0  0  0  0  0
  148.1848  137.6509  154.0779 N   0  3  0  0  0  0  0  0  0  0  0  0
  147.6850  138.9190  153.4871 C   0  0  0  0  0  0  0  0  0  0  0  0
  146.8167  138.6453  152.2471 C   0  0  0  0  0  0  0  0  0  0  0  0
  145.6556  137.7005  152.5839 C   0  0  0  0  0  0  0  0  0  0  0  0
  146.1940  136.4168  153.2289 C   0  0  0  0  0  0  0  0  0  0  0  0
  147.0687  136.7420  154.4509 C   0  0  0  0  0  0  0  0  0  0  0  0
  150.6711  143.2366  157.7918 N   0  0  0  0  0  0  0  0  0  0  0  0
  150.7900  144.3879  158.4860 C   0  0  0  0  0  0  0  0  0  0  0  0
  152.7798  145.9761  160.8081 H   0  0  0  0  0  0  0  0  0  0  0  0
  151.0153  146.0699  160.7871 H   0  0  0  0  0  0  0  0  0  0  0  0
  151.9549  146.7718  159.4637 H   0  0  0  0  0  0  0  0  0  0  0  0
  153.5824  143.7396  160.3242 H   0  0  0  0  0  0  0  0  0  0  0  0
  153.3695  141.6145  159.0465 H   0  0  0  0  0  0  0  0  0  0  0  0
  152.1214  140.2757  157.7081 H   0  0  0  0  0  0  0  0  0  0  0  0
  151.6256  138.8300  156.4689 H   0  0  0  0  0  0  0  0  0  0  0  0
  150.0946  139.4333  154.0107 H   0  0  0  0  0  0  0  0  0  0  0  0
  151.0370  137.3072  153.2022 H   0  0  0  0  0  0  0  0  0  0  0  0
  151.7972  137.0205  154.7649 H   0  0  0  0  0  0  0  0  0  0  0  0
  152.3107  138.3798  153.7669 H   0  0  0  0  0  0  0  0  0  0  0  0
  149.4523  136.9105  155.6023 H   0  0  0  0  0  0  0  0  0  0  0  0
  148.6575  138.4117  155.9919 H   0  0  0  0  0  0  0  0  0  0  0  0
  147.1149  139.4717  154.2355 H   0  0  0  0  0  0  0  0  0  0  0  0
  148.5268  139.5493  153.1982 H   0  0  0  0  0  0  0  0  0  0  0  0
  146.4301  139.5831  151.8471 H   0  0  0  0  0  0  0  0  0  0  0  0
  147.4311  138.2035  151.4614 H   0  0  0  0  0  0  0  0  0  0  0  0
  144.9638  138.1949  153.2671 H   0  0  0  0  0  0  0  0  0  0  0  0
  145.0893  137.4615  151.6831 H   0  0  0  0  0  0  0  0  0  0  0  0
  145.3658  135.7714  153.5233 H   0  0  0  0  0  0  0  0  0  0  0  0
  146.7797  135.8559  152.4991 H   0  0  0  0  0  0  0  0  0  0  0  0
  147.4593  135.8128  154.8646 H   0  0  0  0  0  0  0  0  0  0  0  0
  146.4646  137.2052  155.2326 H   0  0  0  0  0  0  0  0  0  0  0  0
  150.0385  145.1400  158.2948 H   0  0  0  0  0  0  0  0  0  0  0  0
  148.7011  137.1868  153.3439 H   0  0  0  0  0  0  0  0  0  0  0  0
  1  2  1  0  0  0  0
  1 21  1  0  0  0  0
  1 22  1  0  0  0  0
  1 23  1  0  0  0  0
  2 20  1  0  0  0  0
  2  3  2  0  0  0  0
  3  4  1  0  0  0  0
  3 24  1  0  0  0  0
  4  5  2  0  0  0  0
  4 25  1  0  0  0  0
  5  6  1  0  0  0  0
  5 19  1  0  0  0  0
  6  7  1  0  0  0  0
  6 26  1  0  0  0  0
  7  8  2  0  0  0  0
  7  9  1  0  0  0  0
  9 10  1  0  0  0  0
  9 27  1  0  0  0  0
 10 11  1  0  0  0  0
 10 12  1  0  0  0  0
 10 28  1  0  0  0  0
 11 29  1  0  0  0  0
 11 30  1  0  0  0  0
 11 31  1  0  0  0  0
 12 13  1  0  0  0  0
 12 32  1  0  0  0  0
 12 33  1  0  0  0  0
 13 18  1  0  0  0  0
 13 14  1  0  0  0  0
 13 45  1  0  0  0  0
 14 15  1  0  0  0  0
 14 34  1  0  0  0  0
 14 35  1  0  0  0  0
 15 16  1  0  0  0  0
 15 36  1  0  0  0  0
 15 37  1  0  0  0  0
 16 17  1  0  0  0  0
 16 38  1  0  0  0  0
 16 39  1  0  0  0  0
 17 18  1  0  0  0  0
 17 40  1  0  0  0  0
 17 41  1  0  0  0  0
 18 42  1  0  0  0  0
 18 43  1  0  0  0  0
 19 20  2  0  0  0  0
 20 44  1  0  0  0  0
M  CHG  1  13   1
M  END
> <s_m_source_file>
AV-unprocessed.smi

> <i_m_source_file_index>
2362

> <i_lp_mmshare_version>
43012

> <i_f3d_flags>
0

> <s_epik_input>
W0NIM11jMVtjSF1bY0hdYyhuW2NIXTEpW05IXUMoPU8pW05IXVtDQEhdKFtDSDNdKVtDSDJdTjJbQ0gyXVtDSDJdW0NIMl1bQ0gyXVtDSDJdMg==

> <s_epik_cmdline>
J2VwaWtfcHl0aG9uJywgJy1waCcsICc3LjAnLCAnLXRuJywgJzgnLCAnLW1hJywgJzIwMCcsICctbWV0YWxfYmluZGluZycsICctaW1hZScsICc8aW5maWxlLm1hZT4nLCAnLW9tYWUnLCAnPG91dGZpbGUubWFlPic=

> <r_epik_Ionization_Penalty>
0.00215987

> <r_epik_Ionization_Penalty_Charging>
0.00211816

> <r_epik_Ionization_Penalty_Neutral>
4.17101e-05

> <r_epik_State_Penalty>
0.00145254

> <r_epik_Charging_Adjusted_Penalty>
0.0035707

> <i_epik_Tot_Q>
1

> <i_epik_Tot_abs_Q>
1

> <r_epik_Metal_State_Penalty>
-0

> <b_epik_Metal_Only>
0

> <s_lp_Force_Field>
OPLS_2005

> <r_lp_Energy>
24.6446

> <b_lp_Chiralities_Consistent>
1

> <s_lp_Variant>
AV-unprocessed.smi:2362-2

> <Gold.Version>
5.8.1

> <Gold.Id.Protein>
6NUR|6NUR_protein|mol2

> <Gold.PLP.Fitness>
45.6707

> <Gold.PLP.PLP>
-37.7155

> <Gold.PLP.part.hbond>
-1.0000

> <Gold.PLP.part.metal>
0.0000

> <Gold.PLP.part.buried>
-3.0261

> <Gold.PLP.part.nonpolar>
-34.1655

> <Gold.PLP.part.repulsive>
0.4188

> <Gold.PLP.ligand.clash>
0.0000

> <Gold.PLP.ligand.torsion>
0.5745

> <Gold.PLP.Chemscore.Hbond>
2.0000

> <Gold.PLP.Chemscore.CHOScore>
1.0132

> <Gold.PLP.Chemscore.Metal>
0.0000

> <Gold.Chemscore.Hbonds>
donor molecule, donor type, donor heavy atom, donor atom, acceptor molecule, acceptor atom, score
      L1  H    13    45       P1  7948  2.00
      L1  C    20    44       P1  8028  0.02
      L1  C    20    44       P1  8029  1.00

> <Gold.PLP.Chemscore.Internal.Correction>
0.0646

> <Gold.Rescore>
     Score         DG    S(hbond)    S(metal)    S(lipo)     H(rot)  DE(clash)    DE(int)     intcor
     15.25     -17.25       1.00        0.00     103.69       1.44       0.23       1.77       ----

> <Gold.Chemscore.Fitness>
15.2485

> <Gold.Chemscore.DG>
-17.2540

> <Gold.Chemscore.ZeroCoef>
-5.4800

> <Gold.Chemscore.Hbond>
0.9968

> <Gold.Chemscore.Metal>
0.0000

> <Gold.Chemscore.Lipo>
103.6937

> <Gold.Chemscore.Internal_Hbond>
0.0000

> <Gold.Chemscore.DEClash>
0.2323

> <Gold.Chemscore.DEInternal>
1.7732

> <Gold.Chemscore.Rot>
1.4404

> <Gold.Chemscore.Internal.Correction>
   9.000000E+99

> <Gold.Chemscore.Hbonds>
donor molecule, donor type, donor heavy atom, donor atom, acceptor molecule, acceptor atom, score
      L1  H    13    45       P1  7948  0.99

> <Gold.Chemscore.Hbond.Weighted>
-3.3294

> <Gold.Chemscore.Metal.Weighted>
-0.0000

> <Gold.Chemscore.Lipo.Weighted>
-12.1322

> <Gold.Chemscore.Internal_Hbond.Weighted>
0.0000

> <Gold.Chemscore.DEClash.Weighted>
0.2323

> <Gold.Chemscore.DEInternal.Weighted>
1.7732

> <Gold.Chemscore.Rot.Weighted>
3.6875

> <Gold.Chemscore.Internal.Correction.Weighted>
   9.000000E+99

> <Gold.Protein.RotatedTorsions>
[ 6907 6896 6895 6894 ] final  -91.56 input  -60.11 | X-H torsion
[ 7974 7965 7964 7962 ] final   18.61 input  175.53 | X-H torsion
[ 8008 7997 7996 7995 ] final   12.29 input   59.86 | X-H torsion
[ 10167 10162 10161 10158 ] final  136.99 input  -65.29 | X-H torsion
[ 10718 10713 10712 10709 ] final  150.96 input   66.30 | X-H torsion
[ 10763 10752 10751 10750 ] final  -76.12 input  -60.55 | X-H torsion
[ 11005 11000 10999 10996 ] final  120.94 input  -57.11 | X-H torsion

> <Gold.Protein.ActiveResidues>
 VAL166  LYS551  ARG553  GLY616  TRP617  ASP618  TYR619  PRO620  LYS621  CYS622 
 ASP623  PHE694  ASN695  SER759  ASP760  ASP761  ALA762  ILE779  LEU786  VAL792 
 PHE793  MET794  SER795  GLU796  ALA797  LYS798  CYS799  TRP800  GLU811  SER814 

> <Gold.Protein.RotatedAtoms>
  150.6894  134.2258  159.4414 H   0  0  0  0  0  0  0  0  0  0  0  0  # atno 6907 bound_to 6896
  152.0212  134.9819  160.0580 H   0  0  0  0  0  0  0  0  0  0  0  0  # atno 6908 bound_to 6896
  152.1396  133.4421  159.4797 H   0  0  0  0  0  0  0  0  0  0  0  0  # atno 6909 bound_to 6896
  146.2179  139.8433  142.8637 H   0  0  0  0  0  0  0  0  0  0  0  0  # atno 7974 bound_to 7965
  154.8185  140.2880  155.5803 H   0  0  0  0  0  0  0  0  0  0  0  0  # atno 8008 bound_to 7997
  156.2995  140.2554  156.3018 H   0  0  0  0  0  0  0  0  0  0  0  0  # atno 8009 bound_to 7997
  154.9365  140.0382  157.2064 H   0  0  0  0  0  0  0  0  0  0  0  0  # atno 8010 bound_to 7997
  139.5160  144.6434  151.5506 H   0  0  0  0  0  0  0  0  0  0  0  0  # atno 10167 bound_to 10162
  157.2768  131.0827  151.1560 H   0  0  0  0  0  0  0  0  0  0  0  0  # atno 10718 bound_to 10713
  154.4956  135.5808  153.6492 H   0  0  0  0  0  0  0  0  0  0  0  0  # atno 10763 bound_to 10752
  152.9869  135.6123  154.3068 H   0  0  0  0  0  0  0  0  0  0  0  0  # atno 10764 bound_to 10752
  154.2972  135.2847  155.2607 H   0  0  0  0  0  0  0  0  0  0  0  0  # atno 10765 bound_to 10752
  139.9205  134.9637  156.7883 H   0  0  0  0  0  0  0  0  0  0  0  0  # atno 11005 bound_to 11000
  145.2877  141.0158  143.3681 LP  0  0  0  0  0  0  0  0  0  0  0  0  # atno 17320 bound_to 7965
  144.9101  139.4539  143.6591 LP  0  0  0  0  0  0  0  0  0  0  0  0  # atno 17321 bound_to 7965
  140.6210  143.9259  150.6526 LP  0  0  0  0  0  0  0  0  0  0  0  0  # atno 17342 bound_to 10162
  140.2532  143.3578  152.1387 LP  0  0  0  0  0  0  0  0  0  0  0  0  # atno 17343 bound_to 10162
  157.3010  130.6843  149.6164 LP  0  0  0  0  0  0  0  0  0  0  0  0  # atno 17370 bound_to 10713
  155.9664  130.4392  150.5248 LP  0  0  0  0  0  0  0  0  0  0  0  0  # atno 17371 bound_to 10713
  140.6488  133.9751  155.7744 LP  0  0  0  0  0  0  0  0  0  0  0  0  # atno 17394 bound_to 11000
  141.0722  134.0188  157.3509 LP  0  0  0  0  0  0  0  0  0  0  0  0  # atno 17395 bound_to 11000

$$$$
