AV-unprocessed.smi:10|AV-procd|sdf|53|dock10
  -GOLD-   2262015173D 1   1.00000     0.00000
 Structure written by MMmdl.
 34 36  0  0  0  0  0  0  0  0  1 V2000
  152.8215  141.7035  160.6588 C   0  0  0  0  0  0  0  0  0  0  0  0
  152.7114  141.0217  159.3856 N   0  0  0  0  0  0  0  0  0  0  0  0
  153.4386  139.9740  158.9538 C   0  0  0  0  0  0  0  0  0  0  0  0
  153.1293  139.5351  157.7351 N   0  0  0  0  0  0  0  0  0  0  0  0
  152.1027  140.3949  157.3615 C   0  0  0  0  0  0  0  0  0  0  0  0
  151.3028  140.4572  156.1168 C   0  0  0  0  0  0  0  0  0  0  0  0
  151.4692  139.6686  155.1861 O   0  0  0  0  0  0  0  0  0  0  0  0
  150.3789  141.4635  156.1244 N   0  0  0  0  0  0  0  0  0  0  0  0
  149.4870  141.6730  154.9740 C   0  0  0  0  0  0  0  0  0  0  0  0
  148.3391  140.6380  154.9419 C   0  0  2  0  0  0  0  0  0  0  0  0
  148.5641  139.7428  153.8720 O   0  0  0  0  0  0  0  0  0  0  0  0
  146.9754  141.2826  154.6971 C   0  0  0  0  0  0  0  0  0  0  0  0
  146.8284  142.3683  153.6185 C   0  0  0  0  0  0  0  0  0  0  0  0
  145.7987  143.0595  154.5153 C   0  0  0  0  0  0  0  0  0  0  0  0
  146.4291  142.3164  155.6953 C   0  0  0  0  0  0  0  0  0  0  0  0
  150.2024  142.3400  157.2381 C   0  0  0  0  0  0  0  0  0  0  0  0
  150.8900  142.3065  158.3499 N   0  0  0  0  0  0  0  0  0  0  0  0
  151.8328  141.3034  158.3467 C   0  0  0  0  0  0  0  0  0  0  0  0
  153.6788  141.3257  161.2170 H   0  0  0  0  0  0  0  0  0  0  0  0
  151.9158  141.5375  161.2423 H   0  0  0  0  0  0  0  0  0  0  0  0
  152.9496  142.7735  160.4934 H   0  0  0  0  0  0  0  0  0  0  0  0
  154.2163  139.5193  159.5499 H   0  0  0  0  0  0  0  0  0  0  0  0
  149.0736  142.6816  155.0282 H   0  0  0  0  0  0  0  0  0  0  0  0
  150.0416  141.6707  154.0332 H   0  0  0  0  0  0  0  0  0  0  0  0
  148.3114  140.0690  155.8726 H   0  0  0  0  0  0  0  0  0  0  0  0
  149.0303  140.2003  153.1884 H   0  0  0  0  0  0  0  0  0  0  0  0
  146.2102  140.5226  154.5228 H   0  0  0  0  0  0  0  0  0  0  0  0
  147.7364  142.9591  153.4866 H   0  0  0  0  0  0  0  0  0  0  0  0
  146.4380  142.0137  152.6643 H   0  0  0  0  0  0  0  0  0  0  0  0
  145.8853  144.1455  154.5588 H   0  0  0  0  0  0  0  0  0  0  0  0
  144.7755  142.7398  154.3113 H   0  0  0  0  0  0  0  0  0  0  0  0
  145.7172  141.9177  156.4185 H   0  0  0  0  0  0  0  0  0  0  0  0
  147.2164  142.8934  156.1833 H   0  0  0  0  0  0  0  0  0  0  0  0
  149.4093  143.0758  157.0940 H   0  0  0  0  0  0  0  0  0  0  0  0
  1  2  1  0  0  0  0
  1 19  1  0  0  0  0
  1 20  1  0  0  0  0
  1 21  1  0  0  0  0
  2 18  1  0  0  0  0
  2  3  1  0  0  0  0
  3  4  2  0  0  0  0
  3 22  1  0  0  0  0
  4  5  1  0  0  0  0
  5 18  2  0  0  0  0
  5  6  1  0  0  0  0
  6  7  2  0  0  0  0
  6  8  1  0  0  0  0
  8  9  1  0  0  0  0
  8 16  1  0  0  0  0
  9 10  1  0  0  0  0
  9 23  1  0  0  0  0
  9 24  1  0  0  0  0
 10 11  1  0  0  0  0
 10 12  1  0  0  0  0
 10 25  1  0  0  0  0
 11 26  1  0  0  0  0
 12 15  1  0  0  0  0
 12 13  1  0  0  0  0
 12 27  1  0  0  0  0
 13 14  1  0  0  0  0
 13 28  1  0  0  0  0
 13 29  1  0  0  0  0
 14 15  1  0  0  0  0
 14 30  1  0  0  0  0
 14 31  1  0  0  0  0
 15 32  1  0  0  0  0
 15 33  1  0  0  0  0
 16 17  2  0  0  0  0
 16 34  1  0  0  0  0
 17 18  1  0  0  0  0
M  END
> <s_m_source_file>
AV-unprocessed.smi

> <i_m_source_file_index>
10

> <i_lp_mmshare_version>
43012

> <i_f3d_flags>
0

> <s_epik_input>
bjFbY0hdbihbQ0gzXSljKGMxMiluW2NIXW4oYzI9TylbQ0gyXVtDQEhdKFtPSF0pW0NIXTNbQ0gyXVtDSDJdW0NIMl0z

> <s_epik_cmdline>
J2VwaWtfcHl0aG9uJywgJy1waCcsICc3LjAnLCAnLXRuJywgJzgnLCAnLW1hJywgJzIwMCcsICctbWV0YWxfYmluZGluZycsICctaW1hZScsICc8aW5maWxlLm1hZT4nLCAnLW9tYWUnLCAnPG91dGZpbGUubWFlPic=

> <r_lp_tautomer_probability>
1

> <r_epik_Ionization_Penalty>
0.0003743

> <r_epik_Ionization_Penalty_Charging>
2.98177e-12

> <r_epik_Ionization_Penalty_Neutral>
0.000374299

> <r_epik_State_Penalty>
0.000224514

> <r_epik_Charging_Adjusted_Penalty>
0.000224514

> <i_epik_Tot_Q>
0

> <i_epik_Tot_abs_Q>
0

> <r_epik_Metal_State_Penalty>
-0

> <b_epik_Metal_Only>
0

> <s_lp_Force_Field>
OPLS_2005

> <r_lp_Energy>
32.1402

> <b_lp_Chiralities_Consistent>
1

> <s_lp_Variant>
AV-unprocessed.smi:10-1

> <Gold.Version>
5.8.1

> <Gold.Id.Protein>
6NUR|6NUR_protein|mol2

> <Gold.PLP.Fitness>
43.7059

> <Gold.PLP.PLP>
-34.1111

> <Gold.PLP.part.hbond>
-3.0000

> <Gold.PLP.part.metal>
0.0000

> <Gold.PLP.part.buried>
-2.9048

> <Gold.PLP.part.nonpolar>
-27.7813

> <Gold.PLP.part.repulsive>
0.0870

> <Gold.PLP.ligand.clash>
0.0000

> <Gold.PLP.ligand.torsion>
1.0346

> <Gold.PLP.Chemscore.Hbond>
2.8480

> <Gold.PLP.Chemscore.CHOScore>
1.0000

> <Gold.PLP.Chemscore.Metal>
0.0000

> <Gold.Chemscore.Hbonds>
donor molecule, donor type, donor heavy atom, donor atom, acceptor molecule, acceptor atom, score
      L1  H    11    26       P1  7957  0.68
      P1  H  7989  7998       L1     7  0.89
      P1  H  7997  8008       L1     4  1.00
      L1  C    16    34       P1  8028  1.00

> <Gold.PLP.Chemscore.Internal.Correction>
0.1200

> <Gold.Rescore>
     Score         DG    S(hbond)    S(metal)    S(lipo)     H(rot)  DE(clash)    DE(int)     intcor
     10.59     -12.32       1.99        0.00      51.64       2.28       0.73       1.01       ----

> <Gold.Chemscore.Fitness>
10.5893

> <Gold.Chemscore.DG>
-12.3247

> <Gold.Chemscore.ZeroCoef>
-5.4800

> <Gold.Chemscore.Hbond>
1.9898

> <Gold.Chemscore.Metal>
0.0000

> <Gold.Chemscore.Lipo>
51.6409

> <Gold.Chemscore.Internal_Hbond>
0.0000

> <Gold.Chemscore.DEClash>
0.7281

> <Gold.Chemscore.DEInternal>
1.0074

> <Gold.Chemscore.Rot>
2.2824

> <Gold.Chemscore.Internal.Correction>
   9.000000E+99

> <Gold.Chemscore.Hbonds>
donor molecule, donor type, donor heavy atom, donor atom, acceptor molecule, acceptor atom, score
      L1  H    11    26       P1  7957  0.65
      P1  H  7989  7998       L1     7  0.43
      P1  H  7997  8008       L1     4  0.16

> <Gold.Chemscore.Hbond.Weighted>
-6.6458

> <Gold.Chemscore.Metal.Weighted>
-0.0000

> <Gold.Chemscore.Lipo.Weighted>
-6.0420

> <Gold.Chemscore.Internal_Hbond.Weighted>
0.0000

> <Gold.Chemscore.DEClash.Weighted>
0.7281

> <Gold.Chemscore.DEInternal.Weighted>
1.0074

> <Gold.Chemscore.Rot.Weighted>
5.8431

> <Gold.Chemscore.Internal.Correction.Weighted>
   9.000000E+99

> <Gold.Protein.RotatedTorsions>
[ 6907 6896 6895 6894 ] final  -89.83 input  -60.11 | X-H torsion
[ 7974 7965 7964 7962 ] final  103.38 input  175.53 | X-H torsion
[ 8008 7997 7996 7995 ] final  -65.90 input   59.86 | X-H torsion
[ 10167 10162 10161 10158 ] final  121.58 input  -65.29 | X-H torsion
[ 10718 10713 10712 10709 ] final  175.19 input   66.30 | X-H torsion
[ 10763 10752 10751 10750 ] final  168.96 input  -60.55 | X-H torsion
[ 11005 11000 10999 10996 ] final  -83.90 input  -57.11 | X-H torsion

> <Gold.Protein.ActiveResidues>
 VAL166  LYS551  ARG553  GLY616  TRP617  ASP618  TYR619  PRO620  LYS621  CYS622 
 ASP623  PHE694  ASN695  SER759  ASP760  ASP761  ALA762  ILE779  LEU786  VAL792 
 PHE793  MET794  SER795  GLU796  ALA797  LYS798  CYS799  TRP800  GLU811  SER814 

> <Gold.Protein.RotatedAtoms>
  150.6877  134.2525  159.4516 H   0  0  0  0  0  0  0  0  0  0  0  0  # atno 6907 bound_to 6896
  152.0462  134.9679  160.0583 H   0  0  0  0  0  0  0  0  0  0  0  0  # atno 6908 bound_to 6896
  152.1161  133.4293  159.4691 H   0  0  0  0  0  0  0  0  0  0  0  0  # atno 6909 bound_to 6896
  145.3466  139.2449  143.3580 H   0  0  0  0  0  0  0  0  0  0  0  0  # atno 7974 bound_to 7965
  154.4701  140.0923  156.7121 H   0  0  0  0  0  0  0  0  0  0  0  0  # atno 8008 bound_to 7997
  155.4749  140.3465  155.4313 H   0  0  0  0  0  0  0  0  0  0  0  0  # atno 8009 bound_to 7997
  156.1024  140.1425  156.9439 H   0  0  0  0  0  0  0  0  0  0  0  0  # atno 8010 bound_to 7997
  139.5910  144.7025  151.3289 H   0  0  0  0  0  0  0  0  0  0  0  0  # atno 10167 bound_to 10162
  156.9386  130.9994  151.2973 H   0  0  0  0  0  0  0  0  0  0  0  0  # atno 10718 bound_to 10713
  154.3761  135.2753  155.2238 H   0  0  0  0  0  0  0  0  0  0  0  0  # atno 10763 bound_to 10752
  154.4364  135.5965  153.6105 H   0  0  0  0  0  0  0  0  0  0  0  0  # atno 10764 bound_to 10752
  152.9836  135.6008  154.3999 H   0  0  0  0  0  0  0  0  0  0  0  0  # atno 10765 bound_to 10752
  141.1654  133.7318  156.8789 H   0  0  0  0  0  0  0  0  0  0  0  0  # atno 11005 bound_to 11000
  146.2985  140.4074  142.8713 LP  0  0  0  0  0  0  0  0  0  0  0  0  # atno 17320 bound_to 7965
  144.8749  140.7323  143.6023 LP  0  0  0  0  0  0  0  0  0  0  0  0  # atno 17321 bound_to 7965
  140.7173  143.7231  150.7680 LP  0  0  0  0  0  0  0  0  0  0  0  0  # atno 17342 bound_to 10162
  140.0787  143.4990  152.2542 LP  0  0  0  0  0  0  0  0  0  0  0  0  # atno 17343 bound_to 10162
  157.5800  130.8370  149.8509 LP  0  0  0  0  0  0  0  0  0  0  0  0  # atno 17370 bound_to 10713
  156.0415  130.3738  150.1424 LP  0  0  0  0  0  0  0  0  0  0  0  0  # atno 17371 bound_to 10713
  140.1729  134.9087  157.2855 LP  0  0  0  0  0  0  0  0  0  0  0  0  # atno 17394 bound_to 11000
  140.2482  134.3715  155.7453 LP  0  0  0  0  0  0  0  0  0  0  0  0  # atno 17395 bound_to 11000

$$$$
