AV-unprocessed.smi:2892|AV-procd|sdf|11119|dock6
  -GOLD-   2272015593D 1   1.00000     0.00000
 Structure written by MMmdl.
 42 42  0  0  0  0  0  0  0  0  2 V2000
  154.9035  139.0320  162.3147 C   0  0  0  0  0  0  0  0  0  0  0  0
  154.9064  138.7656  160.8020 C   0  0  0  0  0  0  0  0  0  0  0  0
  154.6510  137.2858  160.4087 C   0  0  1  0  0  0  0  0  0  0  0  0
  153.6440  136.6393  161.3870 C   0  0  0  0  0  0  0  0  0  0  0  0
  154.1716  137.1307  158.9313 C   0  0  2  0  0  0  0  0  0  0  0  0
  152.8071  137.6446  158.8090 N   0  0  0  0  0  0  0  0  0  0  0  0
  152.4576  138.8738  158.3939 C   0  0  0  0  0  0  0  0  0  0  0  0
  153.2711  139.7610  158.1372 O   0  0  0  0  0  0  0  0  0  0  0  0
  150.9571  139.1497  158.2567 C   0  0  0  0  0  0  0  0  0  0  0  0
  150.6819  140.6309  158.2973 C   0  0  0  0  0  0  0  0  0  0  0  0
  149.6492  141.3489  157.6289 C   0  0  0  0  0  0  0  0  0  0  0  0
  149.8840  142.6510  157.9641 C   0  0  0  0  0  0  0  0  0  0  0  0
  150.9811  142.6706  158.8012 N   0  0  0  0  0  0  0  0  0  0  0  0
  151.6581  143.8140  159.3939 C   0  0  0  0  0  0  0  0  0  0  0  0
  152.1706  144.7807  158.3150 C   0  0  0  0  0  0  0  0  0  0  0  0
  152.7819  143.3466  160.3306 C   0  0  0  0  0  0  0  0  0  0  0  0
  151.4687  141.4281  159.0058 N   0  0  0  0  0  0  0  0  0  0  0  0
  154.1478  135.6462  158.5174 C   0  0  0  0  0  0  0  0  0  0  0  0
  154.0289  135.4002  157.2973 O   0  0  0  0  0  0  0  0  0  0  0  0
  154.2531  134.7865  159.4218 O   0  5  0  0  0  0  0  0  0  0  0  0
  155.2010  140.0602  162.5214 H   0  0  0  0  0  0  0  0  0  0  0  0
  155.6044  138.3761  162.8316 H   0  0  0  0  0  0  0  0  0  0  0  0
  153.9168  138.8889  162.7535 H   0  0  0  0  0  0  0  0  0  0  0  0
  154.1719  139.4088  160.3160 H   0  0  0  0  0  0  0  0  0  0  0  0
  155.8770  139.0951  160.4330 H   0  0  0  0  0  0  0  0  0  0  0  0
  155.5953  136.7486  160.5159 H   0  0  0  0  0  0  0  0  0  0  0  0
  152.6742  137.1352  161.3374 H   0  0  0  0  0  0  0  0  0  0  0  0
  153.9904  136.6887  162.4182 H   0  0  0  0  0  0  0  0  0  0  0  0
  153.4849  135.5825  161.1733 H   0  0  0  0  0  0  0  0  0  0  0  0
  154.8419  137.6854  158.2714 H   0  0  0  0  0  0  0  0  0  0  0  0
  152.0658  136.9829  158.9862 H   0  0  0  0  0  0  0  0  0  0  0  0
  150.6067  138.7216  157.3171 H   0  0  0  0  0  0  0  0  0  0  0  0
  150.4168  138.6368  159.0537 H   0  0  0  0  0  0  0  0  0  0  0  0
  148.8723  140.9677  156.9835 H   0  0  0  0  0  0  0  0  0  0  0  0
  149.3708  143.5555  157.6734 H   0  0  0  0  0  0  0  0  0  0  0  0
  150.9274  144.3565  159.9970 H   0  0  0  0  0  0  0  0  0  0  0  0
  152.6106  145.6697  158.7672 H   0  0  0  0  0  0  0  0  0  0  0  0
  151.3591  145.1095  157.6652 H   0  0  0  0  0  0  0  0  0  0  0  0
  152.9339  144.3173  157.6891 H   0  0  0  0  0  0  0  0  0  0  0  0
  153.2595  144.1934  160.8237 H   0  0  0  0  0  0  0  0  0  0  0  0
  153.5523  142.7999  159.7861 H   0  0  0  0  0  0  0  0  0  0  0  0
  152.3945  142.6876  161.1085 H   0  0  0  0  0  0  0  0  0  0  0  0
  1  2  1  0  0  0  0
  1 21  1  0  0  0  0
  1 22  1  0  0  0  0
  1 23  1  0  0  0  0
  2  3  1  0  0  0  0
  2 24  1  0  0  0  0
  2 25  1  0  0  0  0
  3  4  1  0  0  0  0
  3  5  1  0  0  0  0
  3 26  1  0  0  0  0
  4 27  1  0  0  0  0
  4 28  1  0  0  0  0
  4 29  1  0  0  0  0
  5  6  1  0  0  0  0
  5 18  1  0  0  0  0
  5 30  1  0  0  0  0
  6  7  1  0  0  0  0
  6 31  1  0  0  0  0
  7  8  2  0  0  0  0
  7  9  1  0  0  0  0
  9 10  1  0  0  0  0
  9 32  1  0  0  0  0
  9 33  1  0  0  0  0
 10 17  2  0  0  0  0
 10 11  1  0  0  0  0
 11 12  2  0  0  0  0
 11 34  1  0  0  0  0
 12 13  1  0  0  0  0
 12 35  1  0  0  0  0
 13 14  1  0  0  0  0
 13 17  1  0  0  0  0
 14 15  1  0  0  0  0
 14 16  1  0  0  0  0
 14 36  1  0  0  0  0
 15 37  1  0  0  0  0
 15 38  1  0  0  0  0
 15 39  1  0  0  0  0
 16 40  1  0  0  0  0
 16 41  1  0  0  0  0
 16 42  1  0  0  0  0
 18 19  2  0  0  0  0
 18 20  1  0  0  0  0
M  CHG  1  20  -1
M  END
> <s_m_source_file>
AV-unprocessed.smi

> <i_m_source_file_index>
2892

> <i_lp_mmshare_version>
43012

> <i_f3d_flags>
0

> <s_epik_input>
W0NIM11bQ0gyXVtDQEhdKFtDSDNdKVtDQEBIXShDKD1PKVtPSF0pW05IXUMoPU8pW0NIMl1jMVtjSF1bY0hdbihuMSlbQ0hdKFtDSDNdKVtDSDNd

> <s_epik_cmdline>
J2VwaWtfcHl0aG9uJywgJy1waCcsICc3LjAnLCAnLXRuJywgJzgnLCAnLW1hJywgJzIwMCcsICctbWV0YWxfYmluZGluZycsICctaW1hZScsICc8aW5maWxlLm1hZT4nLCAnLW9tYWUnLCAnPG91dGZpbGUubWFlPic=

> <r_lp_tautomer_probability>
1

> <r_epik_Ionization_Penalty>
0.000286846

> <r_epik_Ionization_Penalty_Charging>
0.000224481

> <r_epik_Ionization_Penalty_Neutral>
6.23655e-05

> <r_epik_State_Penalty>
-0

> <r_epik_Charging_Adjusted_Penalty>
0.000224481

> <i_epik_Tot_Q>
-1

> <i_epik_Tot_abs_Q>
1

> <r_epik_Metal_State_Penalty>
-0

> <b_epik_Metal_Only>
0

> <s_lp_Force_Field>
OPLS_2005

> <r_lp_Energy>
14.4899

> <b_lp_Chiralities_Consistent>
1

> <s_lp_Variant>
AV-unprocessed.smi:2892-2

> <Gold.Version>
5.8.1

> <Gold.Id.Protein>
6NUR|6NUR_protein|mol2

> <Gold.PLP.Fitness>
45.1496

> <Gold.PLP.PLP>
-30.2288

> <Gold.PLP.part.hbond>
-3.0000

> <Gold.PLP.part.metal>
0.0000

> <Gold.PLP.part.buried>
-4.1705

> <Gold.PLP.part.nonpolar>
-23.4818

> <Gold.PLP.part.repulsive>
0.0877

> <Gold.PLP.ligand.clash>
0.0000

> <Gold.PLP.ligand.torsion>
1.6331

> <Gold.PLP.Chemscore.Hbond>
5.0000

> <Gold.PLP.Chemscore.CHOScore>
1.0127

> <Gold.PLP.Chemscore.Metal>
0.0000

> <Gold.Chemscore.Hbonds>
donor molecule, donor type, donor heavy atom, donor atom, acceptor molecule, acceptor atom, score
      P1  H  6896  6909       L1    20  2.00
      P1  H  7997  8008       L1     8  1.00
      P1  H 10752 10765       L1    19  2.00
      L1  C    12    35       P1  8028  1.00
      L1  C    12    35       P1  8029  0.02

> <Gold.PLP.Chemscore.Internal.Correction>
0.1490

> <Gold.Rescore>
     Score         DG    S(hbond)    S(metal)    S(lipo)     H(rot)  DE(clash)    DE(int)     intcor
     14.31     -18.84       2.96        0.00      82.05       2.39       0.05       4.48       ----

> <Gold.Chemscore.Fitness>
14.3130

> <Gold.Chemscore.DG>
-18.8448

> <Gold.Chemscore.ZeroCoef>
-5.4800

> <Gold.Chemscore.Hbond>
2.9564

> <Gold.Chemscore.Metal>
0.0000

> <Gold.Chemscore.Lipo>
82.0482

> <Gold.Chemscore.Internal_Hbond>
0.0000

> <Gold.Chemscore.DEClash>
0.0509

> <Gold.Chemscore.DEInternal>
4.4809

> <Gold.Chemscore.Rot>
2.3865

> <Gold.Chemscore.Internal.Correction>
   9.000000E+99

> <Gold.Chemscore.Hbonds>
donor molecule, donor type, donor heavy atom, donor atom, acceptor molecule, acceptor atom, score
      P1  H  6896  6909       L1    20  0.39
      P1  H  7997  8008       L1     8  1.00
      P1  H 10752 10765       L1    19  1.00

> <Gold.Chemscore.Hbond.Weighted>
-9.8745

> <Gold.Chemscore.Metal.Weighted>
-0.0000

> <Gold.Chemscore.Lipo.Weighted>
-9.5996

> <Gold.Chemscore.Internal_Hbond.Weighted>
0.0000

> <Gold.Chemscore.DEClash.Weighted>
0.0509

> <Gold.Chemscore.DEInternal.Weighted>
4.4809

> <Gold.Chemscore.Rot.Weighted>
6.1093

> <Gold.Chemscore.Internal.Correction.Weighted>
   9.000000E+99

> <Gold.Protein.RotatedTorsions>
[ 6907 6896 6895 6894 ] final -173.16 input  -60.11 | X-H torsion
[ 7974 7965 7964 7962 ] final   94.03 input  175.53 | X-H torsion
[ 8008 7997 7996 7995 ] final  -87.69 input   59.86 | X-H torsion
[ 10167 10162 10161 10158 ] final  -68.93 input  -65.29 | X-H torsion
[ 10718 10713 10712 10709 ] final  146.63 input   66.30 | X-H torsion
[ 10763 10752 10751 10750 ] final -101.66 input  -60.55 | X-H torsion
[ 11005 11000 10999 10996 ] final  -72.46 input  -57.11 | X-H torsion

> <Gold.Protein.ActiveResidues>
 VAL166  LYS551  ARG553  GLY616  TRP617  ASP618  TYR619  PRO620  LYS621  CYS622 
 ASP623  PHE694  ASN695  SER759  ASP760  ASP761  ALA762  ILE779  LEU786  VAL792 
 PHE793  MET794  SER795  GLU796  ALA797  LYS798  CYS799  TRP800  GLU811  SER814 

> <Gold.Protein.RotatedAtoms>
  151.5517  133.3416  159.2954 H   0  0  0  0  0  0  0  0  0  0  0  0  # atno 6907 bound_to 6896
  150.8475  134.7791  159.6993 H   0  0  0  0  0  0  0  0  0  0  0  0  # atno 6908 bound_to 6896
  152.4529  134.5363  159.9877 H   0  0  0  0  0  0  0  0  0  0  0  0  # atno 6909 bound_to 6896
  145.4710  139.2282  143.2935 H   0  0  0  0  0  0  0  0  0  0  0  0  # atno 7974 bound_to 7965
  154.6662  140.0562  157.0116 H   0  0  0  0  0  0  0  0  0  0  0  0  # atno 8008 bound_to 7997
  155.1156  140.3242  155.4492 H   0  0  0  0  0  0  0  0  0  0  0  0  # atno 8009 bound_to 7997
  156.2639  140.2006  156.6279 H   0  0  0  0  0  0  0  0  0  0  0  0  # atno 8010 bound_to 7997
  140.5470  143.2313  151.6984 H   0  0  0  0  0  0  0  0  0  0  0  0  # atno 10167 bound_to 10162
  157.3309  131.0920  151.1163 H   0  0  0  0  0  0  0  0  0  0  0  0  # atno 10718 bound_to 10713
  154.7674  135.4889  153.9582 H   0  0  0  0  0  0  0  0  0  0  0  0  # atno 10763 bound_to 10752
  153.1325  135.6756  153.9162 H   0  0  0  0  0  0  0  0  0  0  0  0  # atno 10764 bound_to 10752
  153.8861  135.3126  155.3425 H   0  0  0  0  0  0  0  0  0  0  0  0  # atno 10765 bound_to 10752
  141.1609  133.6847  156.7062 H   0  0  0  0  0  0  0  0  0  0  0  0  # atno 11005 bound_to 11000
  146.2397  140.5488  142.8939 LP  0  0  0  0  0  0  0  0  0  0  0  0  # atno 17320 bound_to 7965
  144.7945  140.6097  143.6519 LP  0  0  0  0  0  0  0  0  0  0  0  0  # atno 17321 bound_to 7965
  139.5011  144.3879  152.0309 LP  0  0  0  0  0  0  0  0  0  0  0  0  # atno 17342 bound_to 10162
  140.2993  144.3665  150.6065 LP  0  0  0  0  0  0  0  0  0  0  0  0  # atno 17343 bound_to 10162
  157.2412  130.6570  149.5890 LP  0  0  0  0  0  0  0  0  0  0  0  0  # atno 17370 bound_to 10713
  155.9695  130.4568  150.5937 LP  0  0  0  0  0  0  0  0  0  0  0  0  # atno 17371 bound_to 10713
  140.2921  134.8232  157.4026 LP  0  0  0  0  0  0  0  0  0  0  0  0  # atno 17394 bound_to 11000
  140.1337  134.5062  155.8085 LP  0  0  0  0  0  0  0  0  0  0  0  0  # atno 17395 bound_to 11000

$$$$
