AV-unprocessed.smi:2528|AV-procd|sdf|9956|dock7
  -GOLD-   2272013593D 1   1.00000     0.00000
 Structure written by MMmdl.
 43 45  0  0  0  0  0  0  0  0  1 V2000
  144.6102  136.6736  152.1884 O   0  0  0  0  0  0  0  0  0  0  0  0
  145.8304  136.5386  152.0923 C   0  0  0  0  0  0  0  0  0  0  0  0
  146.7078  137.4834  152.4601 N   0  0  0  0  0  0  0  0  0  0  0  0
  146.3493  138.7780  153.0305 C   0  0  0  0  0  0  0  0  0  0  0  0
  147.5816  139.6190  153.4116 C   0  0  2  0  0  0  0  0  0  0  0  0
  148.6717  138.8053  154.1387 C   0  0  0  0  0  0  0  0  0  0  0  0
  149.7850  139.6446  154.5646 N   0  0  0  0  0  0  0  0  0  0  0  0
  150.8013  138.8630  155.2674 C   0  0  0  0  0  0  0  0  0  0  0  0
  152.0036  139.7170  155.7008 C   0  0  0  0  0  0  0  0  0  0  0  0
  151.5371  140.8906  156.5737 C   0  0  0  0  0  0  0  0  0  0  0  0
  150.4332  141.6779  155.8510 C   0  0  0  0  0  0  0  0  0  0  0  0
  149.2917  140.7422  155.4021 C   0  0  1  0  0  0  0  0  0  0  0  0
  148.1920  141.5391  154.6719 C   0  0  0  0  0  0  0  0  0  0  0  0
  147.1425  140.6632  154.2751 O   0  0  0  0  0  0  0  0  0  0  0  0
  146.4578  135.4475  151.6190 N   0  0  0  0  0  0  0  0  0  0  0  0
  145.8784  134.2423  151.1390 C   0  0  0  0  0  0  0  0  0  0  0  0
  144.5330  134.3489  150.7189 C   0  0  0  0  0  0  0  0  0  0  0  0
  143.8688  133.2091  150.2259 C   0  0  0  0  0  0  0  0  0  0  0  0
  144.5669  131.9898  150.1676 C   0  0  0  0  0  0  0  0  0  0  0  0
  145.9033  131.9693  150.6069 C   0  0  0  0  0  0  0  0  0  0  0  0
  146.5420  133.0605  151.0786 N   0  0  0  0  0  0  0  0  0  0  0  0
  147.6927  137.2918  152.3486 H   0  0  0  0  0  0  0  0  0  0  0  0
  145.7246  139.3272  152.3240 H   0  0  0  0  0  0  0  0  0  0  0  0
  145.7327  138.6026  153.9125 H   0  0  0  0  0  0  0  0  0  0  0  0
  148.0026  140.0700  152.5112 H   0  0  0  0  0  0  0  0  0  0  0  0
  148.2328  138.3069  155.0045 H   0  0  0  0  0  0  0  0  0  0  0  0
  149.0414  138.0183  153.4808 H   0  0  0  0  0  0  0  0  0  0  0  0
  150.3610  138.3881  156.1455 H   0  0  0  0  0  0  0  0  0  0  0  0
  151.1520  138.0559  154.6232 H   0  0  0  0  0  0  0  0  0  0  0  0
  152.7224  139.1056  156.2467 H   0  0  0  0  0  0  0  0  0  0  0  0
  152.5215  140.0965  154.8187 H   0  0  0  0  0  0  0  0  0  0  0  0
  151.1553  140.5118  157.5226 H   0  0  0  0  0  0  0  0  0  0  0  0
  152.3763  141.5445  156.8121 H   0  0  0  0  0  0  0  0  0  0  0  0
  150.0468  142.4573  156.5085 H   0  0  0  0  0  0  0  0  0  0  0  0
  150.8574  142.1853  154.9835 H   0  0  0  0  0  0  0  0  0  0  0  0
  148.8422  140.3151  156.3002 H   0  0  0  0  0  0  0  0  0  0  0  0
  147.7778  142.3062  155.3265 H   0  0  0  0  0  0  0  0  0  0  0  0
  148.5954  142.0505  153.7962 H   0  0  0  0  0  0  0  0  0  0  0  0
  147.4665  135.4785  151.6101 H   0  0  0  0  0  0  0  0  0  0  0  0
  144.0115  135.2938  150.7700 H   0  0  0  0  0  0  0  0  0  0  0  0
  142.8415  133.2700  149.8983 H   0  0  0  0  0  0  0  0  0  0  0  0
  144.0914  131.0941  149.7965 H   0  0  0  0  0  0  0  0  0  0  0  0
  146.4750  131.0535  150.5790 H   0  0  0  0  0  0  0  0  0  0  0  0
  1  2  2  0  0  0  0
  2  3  1  0  0  0  0
  2 15  1  0  0  0  0
  3  4  1  0  0  0  0
  3 22  1  0  0  0  0
  4  5  1  0  0  0  0
  4 23  1  0  0  0  0
  4 24  1  0  0  0  0
  5 14  1  0  0  0  0
  5  6  1  0  0  0  0
  5 25  1  0  0  0  0
  6  7  1  0  0  0  0
  6 26  1  0  0  0  0
  6 27  1  0  0  0  0
  7 12  1  0  0  0  0
  7  8  1  0  0  0  0
  8  9  1  0  0  0  0
  8 28  1  0  0  0  0
  8 29  1  0  0  0  0
  9 10  1  0  0  0  0
  9 30  1  0  0  0  0
  9 31  1  0  0  0  0
 10 11  1  0  0  0  0
 10 32  1  0  0  0  0
 10 33  1  0  0  0  0
 11 12  1  0  0  0  0
 11 34  1  0  0  0  0
 11 35  1  0  0  0  0
 12 13  1  0  0  0  0
 12 36  1  0  0  0  0
 13 14  1  0  0  0  0
 13 37  1  0  0  0  0
 13 38  1  0  0  0  0
 15 16  1  0  0  0  0
 15 39  1  0  0  0  0
 16 21  1  0  0  0  0
 16 17  2  0  0  0  0
 17 18  1  0  0  0  0
 17 40  1  0  0  0  0
 18 19  2  0  0  0  0
 18 41  1  0  0  0  0
 19 20  1  0  0  0  0
 19 42  1  0  0  0  0
 20 21  2  0  0  0  0
 20 43  1  0  0  0  0
M  END
> <s_m_source_file>
AV-unprocessed.smi

> <i_m_source_file_index>
2528

> <i_lp_mmshare_version>
43012

> <i_f3d_flags>
0

> <s_epik_input>
bjFbY0hdW2NIXVtjSF1bY0hdYzFbTkhdQyg9TylbTkhdW0NIMl1bQ0BIXShbQ0gyXTIpT1tDSDJdW0NAQEhdKE4yMylbQ0gyXVtDSDJdW0NIMl1bQ0gyXTM=

> <s_epik_cmdline>
J2VwaWtfcHl0aG9uJywgJy1waCcsICc3LjAnLCAnLXRuJywgJzgnLCAnLW1hJywgJzIwMCcsICctbWV0YWxfYmluZGluZycsICctaW1hZScsICc8aW5maWxlLm1hZT4nLCAnLW9tYWUnLCAnPG91dGZpbGUubWFlPic=

> <r_epik_Ionization_Penalty>
1.14192

> <r_epik_Ionization_Penalty_Charging>
0

> <r_epik_Ionization_Penalty_Neutral>
1.14192

> <r_epik_State_Penalty>
1.20248

> <r_epik_Charging_Adjusted_Penalty>
1.20248

> <i_epik_Tot_Q>
0

> <i_epik_Tot_abs_Q>
0

> <r_epik_Metal_State_Penalty>
1.20248

> <b_epik_Metal_Only>
0

> <s_lp_Force_Field>
OPLS_2005

> <r_lp_Energy>
34.3645

> <b_lp_Chiralities_Consistent>
1

> <s_lp_Variant>
AV-unprocessed.smi:2528-9

> <Gold.Version>
5.8.1

> <Gold.Id.Protein>
6NUR|6NUR_protein|mol2

> <Gold.PLP.Fitness>
44.7925

> <Gold.PLP.PLP>
-36.2466

> <Gold.PLP.part.hbond>
-2.0000

> <Gold.PLP.part.metal>
0.0000

> <Gold.PLP.part.buried>
-2.7960

> <Gold.PLP.part.nonpolar>
-32.6253

> <Gold.PLP.part.repulsive>
1.0736

> <Gold.PLP.ligand.clash>
0.0000

> <Gold.PLP.ligand.torsion>
0.2283

> <Gold.PLP.Chemscore.Hbond>
2.0008

> <Gold.PLP.Chemscore.CHOScore>
1.0000

> <Gold.PLP.Chemscore.Metal>
0.0000

> <Gold.Chemscore.Hbonds>
donor molecule, donor type, donor heavy atom, donor atom, acceptor molecule, acceptor atom, score
      L1  H     3    22       P1  7948  0.99
      L1  H    15    39       P1  7948  1.00
      L1  C    20    43       P1 10747  0.94

> <Gold.PLP.Chemscore.Internal.Correction>
0.0003

> <Gold.Rescore>
     Score         DG    S(hbond)    S(metal)    S(lipo)     H(rot)  DE(clash)    DE(int)     intcor
     17.89     -19.68       1.90        0.00      94.85       1.27       0.11       1.67       ----

> <Gold.Chemscore.Fitness>
17.8908

> <Gold.Chemscore.DG>
-19.6766

> <Gold.Chemscore.ZeroCoef>
-5.4800

> <Gold.Chemscore.Hbond>
1.9010

> <Gold.Chemscore.Metal>
0.0000

> <Gold.Chemscore.Lipo>
94.8508

> <Gold.Chemscore.Internal_Hbond>
0.0000

> <Gold.Chemscore.DEClash>
0.1111

> <Gold.Chemscore.DEInternal>
1.6746

> <Gold.Chemscore.Rot>
1.2696

> <Gold.Chemscore.Internal.Correction>
   9.000000E+99

> <Gold.Chemscore.Hbonds>
donor molecule, donor type, donor heavy atom, donor atom, acceptor molecule, acceptor atom, score
      L1  H     3    22       P1  7948  0.94
      L1  H    15    39       P1  7948  0.93

> <Gold.Chemscore.Hbond.Weighted>
-6.3493

> <Gold.Chemscore.Metal.Weighted>
-0.0000

> <Gold.Chemscore.Lipo.Weighted>
-11.0975

> <Gold.Chemscore.Internal_Hbond.Weighted>
0.0000

> <Gold.Chemscore.DEClash.Weighted>
0.1111

> <Gold.Chemscore.DEInternal.Weighted>
1.6746

> <Gold.Chemscore.Rot.Weighted>
3.2502

> <Gold.Chemscore.Internal.Correction.Weighted>
   9.000000E+99

> <Gold.Protein.RotatedTorsions>
[ 6907 6896 6895 6894 ] final  157.40 input  -60.11 | X-H torsion
[ 7974 7965 7964 7962 ] final  -59.23 input  175.53 | X-H torsion
[ 8008 7997 7996 7995 ] final -169.04 input   59.86 | X-H torsion
[ 10167 10162 10161 10158 ] final  121.66 input  -65.29 | X-H torsion
[ 10718 10713 10712 10709 ] final -136.02 input   66.30 | X-H torsion
[ 10763 10752 10751 10750 ] final  -76.21 input  -60.55 | X-H torsion
[ 11005 11000 10999 10996 ] final  132.50 input  -57.11 | X-H torsion

> <Gold.Protein.ActiveResidues>
 VAL166  LYS551  ARG553  GLY616  TRP617  ASP618  TYR619  PRO620  LYS621  CYS622 
 ASP623  PHE694  ASN695  SER759  ASP760  ASP761  ALA762  ILE779  LEU786  VAL792 
 PHE793  MET794  SER795  GLU796  ALA797  LYS798  CYS799  TRP800  GLU811  SER814 

> <Gold.Protein.RotatedAtoms>
  152.0156  133.3878  159.4237 H   0  0  0  0  0  0  0  0  0  0  0  0  # atno 6907 bound_to 6896
  150.6895  134.3682  159.4989 H   0  0  0  0  0  0  0  0  0  0  0  0  # atno 6908 bound_to 6896
  152.1449  134.9033  160.0602 H   0  0  0  0  0  0  0  0  0  0  0  0  # atno 6909 bound_to 6896
  145.8299  140.8486  143.0089 H   0  0  0  0  0  0  0  0  0  0  0  0  # atno 7974 bound_to 7965
  155.8996  140.1039  157.1359 H   0  0  0  0  0  0  0  0  0  0  0  0  # atno 8008 bound_to 7997
  154.4024  140.1295  156.4484 H   0  0  0  0  0  0  0  0  0  0  0  0  # atno 8009 bound_to 7997
  155.7438  140.3466  155.5119 H   0  0  0  0  0  0  0  0  0  0  0  0  # atno 8010 bound_to 7997
  139.5906  144.7023  151.3300 H   0  0  0  0  0  0  0  0  0  0  0  0  # atno 10167 bound_to 10162
  156.2725  130.7274  151.1245 H   0  0  0  0  0  0  0  0  0  0  0  0  # atno 10718 bound_to 10713
  154.4969  135.5805  153.6501 H   0  0  0  0  0  0  0  0  0  0  0  0  # atno 10763 bound_to 10752
  152.9872  135.6126  154.3053 H   0  0  0  0  0  0  0  0  0  0  0  0  # atno 10764 bound_to 10752
  154.2957  135.2847  155.2613 H   0  0  0  0  0  0  0  0  0  0  0  0  # atno 10765 bound_to 10752
  139.9794  134.9553  156.9590 H   0  0  0  0  0  0  0  0  0  0  0  0  # atno 11005 bound_to 11000
  144.6740  140.0656  143.7474 LP  0  0  0  0  0  0  0  0  0  0  0  0  # atno 17320 bound_to 7965
  145.9583  139.2782  143.1171 LP  0  0  0  0  0  0  0  0  0  0  0  0  # atno 17321 bound_to 7965
  140.7169  143.7241  150.7673 LP  0  0  0  0  0  0  0  0  0  0  0  0  # atno 17342 bound_to 10162
  140.0796  143.4982  152.2537 LP  0  0  0  0  0  0  0  0  0  0  0  0  # atno 17343 bound_to 10162
  157.7288  131.0628  150.5801 LP  0  0  0  0  0  0  0  0  0  0  0  0  # atno 17370 bound_to 10713
  156.5899  130.4326  149.5941 LP  0  0  0  0  0  0  0  0  0  0  0  0  # atno 17371 bound_to 10713
  140.5128  134.0985  155.7274 LP  0  0  0  0  0  0  0  0  0  0  0  0  # atno 17394 bound_to 11000
  141.1467  133.9042  157.2197 LP  0  0  0  0  0  0  0  0  0  0  0  0  # atno 17395 bound_to 11000

$$$$
