AV-unprocessed.smi:1067|AV-procd|sdf|4672|dock8
  -GOLD-   22720 3183D 1   1.00000     0.00000
 Structure written by MMmdl.
 50 52  0  0  0  0  0  0  0  0  1 V2000
  147.3381  136.1042  153.8546 N   0  0  0  0  0  0  0  0  0  0  0  0
  146.0232  136.2825  153.6931 C   0  0  0  0  0  0  0  0  0  0  0  0
  145.2411  136.0667  154.6178 O   0  0  0  0  0  0  0  0  0  0  0  0
  145.5041  136.7860  152.3154 C   0  0  0  0  0  0  0  0  0  0  0  0
  146.1693  138.1554  151.9942 C   0  0  0  0  0  0  0  0  0  0  0  0
  147.5036  138.3245  152.5728 N   0  0  0  0  0  0  0  0  0  0  0  0
  147.8274  139.1838  153.5492 C   0  0  0  0  0  0  0  0  0  0  0  0
  147.0231  139.9577  154.0682 O   0  0  0  0  0  0  0  0  0  0  0  0
  149.1302  139.0893  153.8654 N   0  0  0  0  0  0  0  0  0  0  0  0
  149.8557  139.8241  154.8411 C   0  0  0  0  0  0  0  0  0  0  0  0
  151.0441  139.3697  155.4584 C   0  0  0  0  0  0  0  0  0  0  0  0
  151.6803  140.1957  156.4045 C   0  0  0  0  0  0  0  0  0  0  0  0
  151.1206  141.4603  156.7038 C   0  0  0  0  0  0  0  0  0  0  0  0
  151.7192  142.3109  157.6538 N   0  0  0  0  0  0  0  0  0  0  0  0
  152.3791  141.7967  158.8434 C   0  0  0  0  0  0  0  0  0  0  0  0
  152.7904  143.0446  159.6234 C   0  0  0  0  0  0  0  0  0  0  0  0
  151.6841  144.0447  159.2864 C   0  0  0  0  0  0  0  0  0  0  0  0
  151.2734  143.6826  157.8542 C   0  0  0  0  0  0  0  0  0  0  0  0
  149.9892  141.8985  156.1020 N   0  0  0  0  0  0  0  0  0  0  0  0
  149.3843  141.1037  155.1947 C   0  0  0  0  0  0  0  0  0  0  0  0
  145.8258  135.7941  151.1628 C   0  0  0  0  0  0  0  0  0  0  0  0
  145.0237  134.4817  151.2643 C   0  0  0  0  0  0  0  0  0  0  0  0
  143.6309  134.7679  151.2729 O   0  0  0  0  0  0  0  0  0  0  0  0
  143.2367  135.5661  152.3821 C   0  0  0  0  0  0  0  0  0  0  0  0
  143.9567  136.9276  152.3317 C   0  0  0  0  0  0  0  0  0  0  0  0
  147.6937  135.7729  154.7399 H   0  0  0  0  0  0  0  0  0  0  0  0
  147.9712  136.2955  153.0918 H   0  0  0  0  0  0  0  0  0  0  0  0
  146.2698  138.2693  150.9141 H   0  0  0  0  0  0  0  0  0  0  0  0
  145.5176  138.9727  152.3080 H   0  0  0  0  0  0  0  0  0  0  0  0
  148.2315  137.7261  152.2100 H   0  0  0  0  0  0  0  0  0  0  0  0
  149.6810  138.4611  153.2987 H   0  0  0  0  0  0  0  0  0  0  0  0
  151.4851  138.4142  155.2204 H   0  0  0  0  0  0  0  0  0  0  0  0
  152.5805  139.8467  156.8875 H   0  0  0  0  0  0  0  0  0  0  0  0
  151.6734  141.1965  159.4193 H   0  0  0  0  0  0  0  0  0  0  0  0
  153.2395  141.1755  158.5927 H   0  0  0  0  0  0  0  0  0  0  0  0
  152.8928  142.8623  160.6934 H   0  0  0  0  0  0  0  0  0  0  0  0
  153.7463  143.4147  159.2500 H   0  0  0  0  0  0  0  0  0  0  0  0
  150.8387  143.8903  159.9584 H   0  0  0  0  0  0  0  0  0  0  0  0
  152.0043  145.0821  159.3847 H   0  0  0  0  0  0  0  0  0  0  0  0
  151.7773  144.3259  157.1322 H   0  0  0  0  0  0  0  0  0  0  0  0
  150.1967  143.7895  157.7180 H   0  0  0  0  0  0  0  0  0  0  0  0
  148.4876  141.5021  154.7426 H   0  0  0  0  0  0  0  0  0  0  0  0
  145.5819  136.2629  150.2081 H   0  0  0  0  0  0  0  0  0  0  0  0
  146.8934  135.5777  151.1079 H   0  0  0  0  0  0  0  0  0  0  0  0
  145.2414  133.8464  150.4056 H   0  0  0  0  0  0  0  0  0  0  0  0
  145.2945  133.9100  152.1528 H   0  0  0  0  0  0  0  0  0  0  0  0
  142.1578  135.7158  152.3356 H   0  0  0  0  0  0  0  0  0  0  0  0
  143.4397  135.0397  153.3156 H   0  0  0  0  0  0  0  0  0  0  0  0
  143.6215  137.5420  153.1680 H   0  0  0  0  0  0  0  0  0  0  0  0
  143.6335  137.4563  151.4339 H   0  0  0  0  0  0  0  0  0  0  0  0
  1  2  1  0  0  0  0
  1 26  1  0  0  0  0
  1 27  1  0  0  0  0
  2  3  2  0  0  0  0
  2  4  1  0  0  0  0
  4 25  1  0  0  0  0
  4  5  1  0  0  0  0
  4 21  1  0  0  0  0
  5  6  1  0  0  0  0
  5 28  1  0  0  0  0
  5 29  1  0  0  0  0
  6  7  1  0  0  0  0
  6 30  1  0  0  0  0
  7  8  2  0  0  0  0
  7  9  1  0  0  0  0
  9 10  1  0  0  0  0
  9 31  1  0  0  0  0
 10 20  1  0  0  0  0
 10 11  2  0  0  0  0
 11 12  1  0  0  0  0
 11 32  1  0  0  0  0
 12 13  2  0  0  0  0
 12 33  1  0  0  0  0
 13 14  1  0  0  0  0
 13 19  1  0  0  0  0
 14 18  1  0  0  0  0
 14 15  1  0  0  0  0
 15 16  1  0  0  0  0
 15 34  1  0  0  0  0
 15 35  1  0  0  0  0
 16 17  1  0  0  0  0
 16 36  1  0  0  0  0
 16 37  1  0  0  0  0
 17 18  1  0  0  0  0
 17 38  1  0  0  0  0
 17 39  1  0  0  0  0
 18 40  1  0  0  0  0
 18 41  1  0  0  0  0
 19 20  2  0  0  0  0
 20 42  1  0  0  0  0
 21 22  1  0  0  0  0
 21 43  1  0  0  0  0
 21 44  1  0  0  0  0
 22 23  1  0  0  0  0
 22 45  1  0  0  0  0
 22 46  1  0  0  0  0
 23 24  1  0  0  0  0
 24 25  1  0  0  0  0
 24 47  1  0  0  0  0
 24 48  1  0  0  0  0
 25 49  1  0  0  0  0
 25 50  1  0  0  0  0
M  END
> <s_m_source_file>
AV-unprocessed.smi

> <i_m_source_file_index>
1067

> <i_lp_mmshare_version>
43012

> <i_f3d_flags>
0

> <s_epik_input>
W0NIMl0xW0NIMl1PW0NIMl1bQ0gyXUMxKEMoPU8pW05IMl0pW0NIMl1bTkhdQyg9TylbTkhdYzJbY0hdW2NIXWMobltjSF0yKU4zW0NIMl1bQ0gyXVtDSDJdW0NIMl0z

> <s_epik_cmdline>
J2VwaWtfcHl0aG9uJywgJy1waCcsICc3LjAnLCAnLXRuJywgJzgnLCAnLW1hJywgJzIwMCcsICctbWV0YWxfYmluZGluZycsICctaW1hZScsICc8aW5maWxlLm1hZT4nLCAnLW9tYWUnLCAnPG91dGZpbGUubWFlPic=

> <r_lp_tautomer_probability>
1

> <r_epik_Ionization_Penalty>
0.0944962

> <r_epik_Ionization_Penalty_Charging>
0

> <r_epik_Ionization_Penalty_Neutral>
0.0944962

> <r_epik_State_Penalty>
0.0841646

> <r_epik_Charging_Adjusted_Penalty>
0.0841646

> <i_epik_Tot_Q>
0

> <i_epik_Tot_abs_Q>
0

> <r_epik_Metal_State_Penalty>
0.0725577

> <b_epik_Metal_Only>
0

> <s_lp_Force_Field>
OPLS_2005

> <r_lp_Energy>
34.2759

> <b_lp_Chiralities_Consistent>
1

> <s_lp_Variant>
AV-unprocessed.smi:1067-1

> <Gold.Version>
5.8.1

> <Gold.Id.Protein>
6NUR|6NUR_protein|mol2

> <Gold.PLP.Fitness>
48.8272

> <Gold.PLP.PLP>
-44.6855

> <Gold.PLP.part.hbond>
-3.9703

> <Gold.PLP.part.metal>
0.0000

> <Gold.PLP.part.buried>
-3.1982

> <Gold.PLP.part.nonpolar>
-39.2689

> <Gold.PLP.part.repulsive>
1.6455

> <Gold.PLP.ligand.clash>
0.0000

> <Gold.PLP.ligand.torsion>
1.0214

> <Gold.PLP.Chemscore.Hbond>
2.0000

> <Gold.PLP.Chemscore.CHOScore>
0.0000

> <Gold.PLP.Chemscore.Metal>
0.0000

> <Gold.Chemscore.Hbonds>
donor molecule, donor type, donor heavy atom, donor atom, acceptor molecule, acceptor atom, score
      L1  H     1    27       P1  7948  1.00
      L1  H     6    30       P1  7948  1.00

> <Gold.PLP.Chemscore.Internal.Correction>
0.1845

> <Gold.Rescore>
     Score         DG    S(hbond)    S(metal)    S(lipo)     H(rot)  DE(clash)    DE(int)     intcor
     15.34     -19.27       1.99        0.00     100.58       1.81       0.05       3.88       ----

> <Gold.Chemscore.Fitness>
15.3394

> <Gold.Chemscore.DG>
-19.2650

> <Gold.Chemscore.ZeroCoef>
-5.4800

> <Gold.Chemscore.Hbond>
1.9892

> <Gold.Chemscore.Metal>
0.0000

> <Gold.Chemscore.Lipo>
100.5828

> <Gold.Chemscore.Internal_Hbond>
0.0000

> <Gold.Chemscore.DEClash>
0.0485

> <Gold.Chemscore.DEInternal>
3.8771

> <Gold.Chemscore.Rot>
1.8075

> <Gold.Chemscore.Internal.Correction>
   9.000000E+99

> <Gold.Chemscore.Hbonds>
donor molecule, donor type, donor heavy atom, donor atom, acceptor molecule, acceptor atom, score
      L1  H     1    27       P1  7948  0.97
      L1  H     6    30       P1  7948  0.98

> <Gold.Chemscore.Hbond.Weighted>
-6.6440

> <Gold.Chemscore.Metal.Weighted>
-0.0000

> <Gold.Chemscore.Lipo.Weighted>
-11.7682

> <Gold.Chemscore.Internal_Hbond.Weighted>
0.0000

> <Gold.Chemscore.DEClash.Weighted>
0.0485

> <Gold.Chemscore.DEInternal.Weighted>
3.8771

> <Gold.Chemscore.Rot.Weighted>
4.6272

> <Gold.Chemscore.Internal.Correction.Weighted>
   9.000000E+99

> <Gold.Protein.RotatedTorsions>
[ 6907 6896 6895 6894 ] final  101.30 input  -60.11 | X-H torsion
[ 7974 7965 7964 7962 ] final  -54.73 input  175.53 | X-H torsion
[ 8008 7997 7996 7995 ] final -107.00 input   59.86 | X-H torsion
[ 10167 10162 10161 10158 ] final  -62.76 input  -65.29 | X-H torsion
[ 10718 10713 10712 10709 ] final  105.45 input   66.30 | X-H torsion
[ 10763 10752 10751 10750 ] final   99.37 input  -60.55 | X-H torsion
[ 11005 11000 10999 10996 ] final  121.48 input  -57.11 | X-H torsion

> <Gold.Protein.ActiveResidues>
 VAL166  LYS551  ARG553  GLY616  TRP617  ASP618  TYR619  PRO620  LYS621  CYS622 
 ASP623  PHE694  ASN695  SER759  ASP760  ASP761  ALA762  ILE779  LEU786  VAL792 
 PHE793  MET794  SER795  GLU796  ALA797  LYS798  CYS799  TRP800  GLU811  SER814 

> <Gold.Protein.RotatedAtoms>
  152.5352  134.0146  159.7953 H   0  0  0  0  0  0  0  0  0  0  0  0  # atno 6907 bound_to 6896
  151.0343  133.5755  159.2664 H   0  0  0  0  0  0  0  0  0  0  0  0  # atno 6908 bound_to 6896
  151.2748  135.0703  159.9201 H   0  0  0  0  0  0  0  0  0  0  0  0  # atno 6909 bound_to 6896
  145.8823  140.8135  142.9834 H   0  0  0  0  0  0  0  0  0  0  0  0  # atno 7974 bound_to 7965
  154.9228  140.0407  157.2007 H   0  0  0  0  0  0  0  0  0  0  0  0  # atno 8008 bound_to 7997
  154.8237  140.2888  155.5748 H   0  0  0  0  0  0  0  0  0  0  0  0  # atno 8009 bound_to 7997
  156.2982  140.2514  156.3149 H   0  0  0  0  0  0  0  0  0  0  0  0  # atno 8010 bound_to 7997
  140.5917  143.2343  151.6125 H   0  0  0  0  0  0  0  0  0  0  0  0  # atno 10167 bound_to 10162
  157.6705  131.0828  150.5858 H   0  0  0  0  0  0  0  0  0  0  0  0  # atno 10718 bound_to 10713
  153.3006  135.4116  155.1249 H   0  0  0  0  0  0  0  0  0  0  0  0  # atno 10763 bound_to 10752
  154.8548  135.3540  154.5857 H   0  0  0  0  0  0  0  0  0  0  0  0  # atno 10764 bound_to 10752
  153.6283  135.7062  153.5343 H   0  0  0  0  0  0  0  0  0  0  0  0  # atno 10765 bound_to 10752
  139.9228  134.9639  156.7965 H   0  0  0  0  0  0  0  0  0  0  0  0  # atno 11005 bound_to 11000
  144.6727  140.1402  143.7437 LP  0  0  0  0  0  0  0  0  0  0  0  0  # atno 17320 bound_to 7965
  145.9009  139.2430  143.1494 LP  0  0  0  0  0  0  0  0  0  0  0  0  # atno 17321 bound_to 7965
  139.5231  144.3141  152.0967 LP  0  0  0  0  0  0  0  0  0  0  0  0  # atno 17342 bound_to 10162
  140.2307  144.4371  150.6301 LP  0  0  0  0  0  0  0  0  0  0  0  0  # atno 17343 bound_to 10162
  156.6159  130.4392  149.5841 LP  0  0  0  0  0  0  0  0  0  0  0  0  # atno 17370 bound_to 10713
  156.2394  130.6842  151.1541 LP  0  0  0  0  0  0  0  0  0  0  0  0  # atno 17371 bound_to 10713
  140.6425  133.9806  155.7714 LP  0  0  0  0  0  0  0  0  0  0  0  0  # atno 17394 bound_to 11000
  141.0762  134.0131  157.3454 LP  0  0  0  0  0  0  0  0  0  0  0  0  # atno 17395 bound_to 11000

$$$$
