AV-unprocessed.smi:1952|AV-procd|sdf|7886|dock4
  -GOLD-   2272010 33D 1   1.00000     0.00000
 Structure written by MMmdl.
 40 41  0  0  0  0  0  0  0  0  2 V2000
  137.2979  137.3113  154.5954 C   0  0  0  0  0  0  0  0  0  0  0  0
  138.7701  137.2176  154.3831 C   0  0  0  0  0  0  0  0  0  0  0  0
  139.5832  137.5534  153.3371 C   0  0  0  0  0  0  0  0  0  0  0  0
  140.8738  137.1910  153.8063 C   0  0  0  0  0  0  0  0  0  0  0  0
  142.0246  137.3849  153.0000 N   0  0  0  0  0  0  0  0  0  0  0  0
  143.2869  137.0175  153.2772 C   0  0  0  0  0  0  0  0  0  0  0  0
  143.6448  136.4200  154.2926 O   0  0  0  0  0  0  0  0  0  0  0  0
  144.1310  137.3925  152.3039 N   0  0  0  0  0  0  0  0  0  0  0  0
  145.5685  137.1188  152.2581 C   0  0  1  0  0  0  0  0  0  0  0  0
  145.8982  136.4236  150.9300 C   0  0  0  0  0  0  0  0  0  0  0  0
  146.4009  138.4108  152.4331 C   0  0  0  0  0  0  0  0  0  0  0  0
  147.6039  138.2228  153.2833 N   0  3  0  0  0  0  0  0  0  0  0  0
  148.2935  139.4915  153.6221 C   0  0  0  0  0  0  0  0  0  0  0  0
  149.5680  139.2022  154.4318 C   0  0  0  0  0  0  0  0  0  0  0  0
  149.2288  138.4734  155.6055 O   0  0  0  0  0  0  0  0  0  0  0  0
  148.6346  137.2177  155.2999 C   0  0  0  0  0  0  0  0  0  0  0  0
  147.3324  137.4389  154.5108 C   0  0  0  0  0  0  0  0  0  0  0  0
  140.8518  136.6858  155.0301 N   0  0  0  0  0  0  0  0  0  0  0  0
  139.5033  136.6987  155.4053 O   0  0  0  0  0  0  0  0  0  0  0  0
  136.8325  137.9339  153.8311 H   0  0  0  0  0  0  0  0  0  0  0  0
  137.0731  137.7481  155.5687 H   0  0  0  0  0  0  0  0  0  0  0  0
  136.8388  136.3235  154.5531 H   0  0  0  0  0  0  0  0  0  0  0  0
  139.2962  137.9853  152.3899 H   0  0  0  0  0  0  0  0  0  0  0  0
  141.8683  137.8545  152.1202 H   0  0  0  0  0  0  0  0  0  0  0  0
  143.7433  137.8809  151.5096 H   0  0  0  0  0  0  0  0  0  0  0  0
  145.8210  136.4148  153.0523 H   0  0  0  0  0  0  0  0  0  0  0  0
  146.9558  136.1642  150.8749 H   0  0  0  0  0  0  0  0  0  0  0  0
  145.6682  137.0632  150.0770 H   0  0  0  0  0  0  0  0  0  0  0  0
  145.3287  135.5004  150.8170 H   0  0  0  0  0  0  0  0  0  0  0  0
  146.7016  138.8103  151.4635 H   0  0  0  0  0  0  0  0  0  0  0  0
  145.7584  139.1684  152.8849 H   0  0  0  0  0  0  0  0  0  0  0  0
  148.5568  140.0366  152.7163 H   0  0  0  0  0  0  0  0  0  0  0  0
  147.6235  140.1327  154.1973 H   0  0  0  0  0  0  0  0  0  0  0  0
  150.2906  138.6426  153.8354 H   0  0  0  0  0  0  0  0  0  0  0  0
  150.0495  140.1363  154.7220 H   0  0  0  0  0  0  0  0  0  0  0  0
  149.3333  136.6005  154.7328 H   0  0  0  0  0  0  0  0  0  0  0  0
  148.4259  136.6898  156.2306 H   0  0  0  0  0  0  0  0  0  0  0  0
  146.6023  137.9649  155.1279 H   0  0  0  0  0  0  0  0  0  0  0  0
  146.8968  136.4742  154.2475 H   0  0  0  0  0  0  0  0  0  0  0  0
  148.2544  137.6747  152.7377 H   0  0  0  0  0  0  0  0  0  0  0  0
  1  2  1  0  0  0  0
  1 20  1  0  0  0  0
  1 21  1  0  0  0  0
  1 22  1  0  0  0  0
  2 19  1  0  0  0  0
  2  3  2  0  0  0  0
  3  4  1  0  0  0  0
  3 23  1  0  0  0  0
  4  5  1  0  0  0  0
  4 18  2  0  0  0  0
  5  6  1  0  0  0  0
  5 24  1  0  0  0  0
  6  7  2  0  0  0  0
  6  8  1  0  0  0  0
  8  9  1  0  0  0  0
  8 25  1  0  0  0  0
  9 10  1  0  0  0  0
  9 11  1  0  0  0  0
  9 26  1  0  0  0  0
 10 27  1  0  0  0  0
 10 28  1  0  0  0  0
 10 29  1  0  0  0  0
 11 12  1  0  0  0  0
 11 30  1  0  0  0  0
 11 31  1  0  0  0  0
 12 17  1  0  0  0  0
 12 13  1  0  0  0  0
 12 40  1  0  0  0  0
 13 14  1  0  0  0  0
 13 32  1  0  0  0  0
 13 33  1  0  0  0  0
 14 15  1  0  0  0  0
 14 34  1  0  0  0  0
 14 35  1  0  0  0  0
 15 16  1  0  0  0  0
 16 17  1  0  0  0  0
 16 36  1  0  0  0  0
 16 37  1  0  0  0  0
 17 38  1  0  0  0  0
 17 39  1  0  0  0  0
 18 19  1  0  0  0  0
M  CHG  1  12   1
M  END
> <s_m_source_file>
AV-unprocessed.smi

> <i_m_source_file_index>
1952

> <i_lp_mmshare_version>
43012

> <i_f3d_flags>
0

> <s_epik_input>
W0NIM11jMVtjSF1jKG5vMSlbTkhdQyg9TylbTkhdW0NASF0oW0NIM10pW0NIMl1OMltDSDJdW0NIMl1PW0NIMl1bQ0gyXTI=

> <s_epik_cmdline>
J2VwaWtfcHl0aG9uJywgJy1waCcsICc3LjAnLCAnLXRuJywgJzgnLCAnLW1hJywgJzIwMCcsICctbWV0YWxfYmluZGluZycsICctaW1hZScsICc8aW5maWxlLm1hZT4nLCAnLW9tYWUnLCAnPG91dGZpbGUubWFlPic=

> <r_epik_Ionization_Penalty>
0.707079

> <r_epik_Ionization_Penalty_Charging>
0.707039

> <r_epik_Ionization_Penalty_Neutral>
4.01892e-05

> <r_epik_State_Penalty>
0.730276

> <r_epik_Charging_Adjusted_Penalty>
1.43732

> <i_epik_Tot_Q>
1

> <i_epik_Tot_abs_Q>
1

> <r_epik_Metal_State_Penalty>
0.744847

> <b_epik_Metal_Only>
0

> <s_lp_Force_Field>
OPLS_2005

> <r_lp_Energy>
19.2195

> <b_lp_Chiralities_Consistent>
1

> <s_lp_Variant>
AV-unprocessed.smi:1952-4

> <Gold.Version>
5.8.1

> <Gold.Id.Protein>
6NUR|6NUR_protein|mol2

> <Gold.PLP.Fitness>
37.3198

> <Gold.PLP.PLP>
-28.1426

> <Gold.PLP.part.hbond>
-4.8060

> <Gold.PLP.part.metal>
0.0000

> <Gold.PLP.part.buried>
-0.3893

> <Gold.PLP.part.nonpolar>
-23.6785

> <Gold.PLP.part.repulsive>
0.2411

> <Gold.PLP.ligand.clash>
0.0000

> <Gold.PLP.ligand.torsion>
0.6801

> <Gold.PLP.Chemscore.Hbond>
3.5000

> <Gold.PLP.Chemscore.CHOScore>
0.0000

> <Gold.PLP.Chemscore.Metal>
0.0000

> <Gold.Chemscore.Hbonds>
donor molecule, donor type, donor heavy atom, donor atom, acceptor molecule, acceptor atom, score
      L1  H     8    25       P1 10171  1.00
      L1  H    12    40       P1  7948  2.00
      P1  H 11000 11005       L1    19  0.36

> <Gold.PLP.Chemscore.Internal.Correction>
0.0373

> <Gold.Rescore>
     Score         DG    S(hbond)    S(metal)    S(lipo)     H(rot)  DE(clash)    DE(int)     intcor
     12.73     -14.74       1.97        0.00      58.15       1.61       0.07       1.93       ----

> <Gold.Chemscore.Fitness>
12.7314

> <Gold.Chemscore.DG>
-14.7401

> <Gold.Chemscore.ZeroCoef>
-5.4800

> <Gold.Chemscore.Hbond>
1.9677

> <Gold.Chemscore.Metal>
0.0000

> <Gold.Chemscore.Lipo>
58.1519

> <Gold.Chemscore.Internal_Hbond>
0.0000

> <Gold.Chemscore.DEClash>
0.0737

> <Gold.Chemscore.DEInternal>
1.9350

> <Gold.Chemscore.Rot>
1.6078

> <Gold.Chemscore.Internal.Correction>
   9.000000E+99

> <Gold.Chemscore.Hbonds>
donor molecule, donor type, donor heavy atom, donor atom, acceptor molecule, acceptor atom, score
      L1  H     8    25       P1 10171  0.96
      L1  H    12    40       P1  7948  1.00
      P1  H 11000 11005       L1    19  0.01

> <Gold.Chemscore.Hbond.Weighted>
-6.5722

> <Gold.Chemscore.Metal.Weighted>
-0.0000

> <Gold.Chemscore.Lipo.Weighted>
-6.8038

> <Gold.Chemscore.Internal_Hbond.Weighted>
0.0000

> <Gold.Chemscore.DEClash.Weighted>
0.0737

> <Gold.Chemscore.DEInternal.Weighted>
1.9350

> <Gold.Chemscore.Rot.Weighted>
4.1158

> <Gold.Chemscore.Internal.Correction.Weighted>
   9.000000E+99

> <Gold.Protein.RotatedTorsions>
[ 6907 6896 6895 6894 ] final  -97.13 input  -60.11 | X-H torsion
[ 7974 7965 7964 7962 ] final  173.91 input  175.53 | X-H torsion
[ 8008 7997 7996 7995 ] final   17.18 input   59.86 | X-H torsion
[ 10167 10162 10161 10158 ] final    1.36 input  -65.29 | X-H torsion
[ 10718 10713 10712 10709 ] final  -42.31 input   66.30 | X-H torsion
[ 10763 10752 10751 10750 ] final   44.17 input  -60.55 | X-H torsion
[ 11005 11000 10999 10996 ] final  105.64 input  -57.11 | X-H torsion

> <Gold.Protein.ActiveResidues>
 VAL166  LYS551  ARG553  GLY616  TRP617  ASP618  TYR619  PRO620  LYS621  CYS622 
 ASP623  PHE694  ASN695  SER759  ASP760  ASP761  ALA762  ILE779  LEU786  VAL792 
 PHE793  MET794  SER795  GLU796  ALA797  LYS798  CYS799  TRP800  GLU811  SER814 

> <Gold.Protein.RotatedAtoms>
  150.7007  134.1396  159.4099 H   0  0  0  0  0  0  0  0  0  0  0  0  # atno 6907 bound_to 6896
  151.9380  135.0224  160.0543 H   0  0  0  0  0  0  0  0  0  0  0  0  # atno 6908 bound_to 6896
  152.2118  133.4881  159.5151 H   0  0  0  0  0  0  0  0  0  0  0  0  # atno 6909 bound_to 6896
  144.7233  139.9718  143.6437 H   0  0  0  0  0  0  0  0  0  0  0  0  # atno 7974 bound_to 7965
  154.8877  140.2982  155.5388 H   0  0  0  0  0  0  0  0  0  0  0  0  # atno 8008 bound_to 7997
  156.3021  140.2430  156.3822 H   0  0  0  0  0  0  0  0  0  0  0  0  # atno 8009 bound_to 7997
  154.8651  140.0403  157.1678 H   0  0  0  0  0  0  0  0  0  0  0  0  # atno 8010 bound_to 7997
  140.6686  143.7111  150.7877 H   0  0  0  0  0  0  0  0  0  0  0  0  # atno 10167 bound_to 10162
  156.2610  130.4197  149.8543 H   0  0  0  0  0  0  0  0  0  0  0  0  # atno 10718 bound_to 10713
  152.9846  135.6079  154.3231 H   0  0  0  0  0  0  0  0  0  0  0  0  # atno 10763 bound_to 10752
  154.2939  135.2774  155.2644 H   0  0  0  0  0  0  0  0  0  0  0  0  # atno 10764 bound_to 10752
  154.4927  135.5888  153.6527 H   0  0  0  0  0  0  0  0  0  0  0  0  # atno 10765 bound_to 10752
  139.8804  134.9343  156.5545 H   0  0  0  0  0  0  0  0  0  0  0  0  # atno 11005 bound_to 11000
  146.0556  139.3554  143.0612 LP  0  0  0  0  0  0  0  0  0  0  0  0  # atno 17320 bound_to 7965
  145.8158  140.9703  143.0925 LP  0  0  0  0  0  0  0  0  0  0  0  0  # atno 17321 bound_to 7965
  140.0793  143.4985  152.2539 LP  0  0  0  0  0  0  0  0  0  0  0  0  # atno 17342 bound_to 10162
  139.5945  144.7562  151.3320 LP  0  0  0  0  0  0  0  0  0  0  0  0  # atno 17343 bound_to 10162
  156.6058  130.8566  151.3442 LP  0  0  0  0  0  0  0  0  0  0  0  0  # atno 17370 bound_to 10713
  157.7250  130.9610  150.1598 LP  0  0  0  0  0  0  0  0  0  0  0  0  # atno 17371 bound_to 10713
  140.8215  133.8350  155.8900 LP  0  0  0  0  0  0  0  0  0  0  0  0  # atno 17394 bound_to 11000
  140.9414  134.1896  157.4795 LP  0  0  0  0  0  0  0  0  0  0  0  0  # atno 17395 bound_to 11000

$$$$
