AV-unprocessed.smi:3122|AV-procd|sdf|11896|dock7
  -GOLD-   2272017283D 1   1.00000     0.00000
 Structure written by MMmdl.
 30 31  0  0  0  0  0  0  0  0  2 V2000
  153.0158  138.6005  154.7247 C   0  0  0  0  0  0  0  0  0  0  0  0
  151.8150  138.8033  155.6593 C   0  0  0  0  0  0  0  0  0  0  0  0
  150.5816  139.3359  154.9152 C   0  0  0  0  0  0  0  0  0  0  0  0
  152.1716  139.6591  156.8340 C   0  0  0  0  0  0  0  0  0  0  0  0
  153.1503  139.4568  157.7207 N   0  0  0  0  0  0  0  0  0  0  0  0
  153.0338  140.4667  158.6482 N   0  0  0  0  0  0  0  0  0  0  0  0
  151.9646  141.1775  158.2794 C   0  0  0  0  0  0  0  0  0  0  0  0
  151.4300  142.4200  158.9154 C   0  0  2  0  0  0  0  0  0  0  0  0
  150.2463  143.0163  158.1304 C   0  0  0  0  0  0  0  0  0  0  0  0
  149.8217  144.2885  158.7468 N   0  3  0  0  0  0  0  0  0  0  0  0
  150.9495  145.2339  158.8672 C   0  0  0  0  0  0  0  0  0  0  0  0
  152.1177  144.5725  159.6197 C   0  0  0  0  0  0  0  0  0  0  0  0
  152.4938  143.3680  158.9601 O   0  0  0  0  0  0  0  0  0  0  0  0
  151.3819  140.7219  157.1401 O   0  0  0  0  0  0  0  0  0  0  0  0
  153.8566  138.1542  155.2565 H   0  0  0  0  0  0  0  0  0  0  0  0
  153.3537  139.5478  154.3028 H   0  0  0  0  0  0  0  0  0  0  0  0
  152.7610  137.9395  153.8960 H   0  0  0  0  0  0  0  0  0  0  0  0
  151.5473  137.8216  156.0525 H   0  0  0  0  0  0  0  0  0  0  0  0
  149.7231  139.4110  155.5834 H   0  0  0  0  0  0  0  0  0  0  0  0
  150.3032  138.6749  154.0939 H   0  0  0  0  0  0  0  0  0  0  0  0
  150.7658  140.3259  154.4964 H   0  0  0  0  0  0  0  0  0  0  0  0
  151.1221  142.1746  159.9336 H   0  0  0  0  0  0  0  0  0  0  0  0
  150.5314  143.2008  157.0934 H   0  0  0  0  0  0  0  0  0  0  0  0
  149.4044  142.3236  158.1146 H   0  0  0  0  0  0  0  0  0  0  0  0
  149.0909  144.7060  158.1879 H   0  0  0  0  0  0  0  0  0  0  0  0
  151.2690  145.5401  157.8704 H   0  0  0  0  0  0  0  0  0  0  0  0
  150.6159  146.1313  159.3886 H   0  0  0  0  0  0  0  0  0  0  0  0
  152.9762  145.2438  159.6462 H   0  0  0  0  0  0  0  0  0  0  0  0
  151.8452  144.3628  160.6553 H   0  0  0  0  0  0  0  0  0  0  0  0
  149.4606  144.0970  159.6706 H   0  0  0  0  0  0  0  0  0  0  0  0
  1  2  1  0  0  0  0
  1 15  1  0  0  0  0
  1 16  1  0  0  0  0
  1 17  1  0  0  0  0
  2  3  1  0  0  0  0
  2  4  1  0  0  0  0
  2 18  1  0  0  0  0
  3 19  1  0  0  0  0
  3 20  1  0  0  0  0
  3 21  1  0  0  0  0
  4 14  1  0  0  0  0
  4  5  2  0  0  0  0
  5  6  1  0  0  0  0
  6  7  2  0  0  0  0
  7  8  1  0  0  0  0
  7 14  1  0  0  0  0
  8 13  1  0  0  0  0
  8  9  1  0  0  0  0
  8 22  1  0  0  0  0
  9 10  1  0  0  0  0
  9 23  1  0  0  0  0
  9 24  1  0  0  0  0
 10 11  1  0  0  0  0
 10 25  1  0  0  0  0
 10 30  1  0  0  0  0
 11 12  1  0  0  0  0
 11 26  1  0  0  0  0
 11 27  1  0  0  0  0
 12 13  1  0  0  0  0
 12 28  1  0  0  0  0
 12 29  1  0  0  0  0
M  CHG  1  10   1
M  END
> <s_m_source_file>
AV-unprocessed.smi

> <i_m_source_file_index>
3122

> <i_lp_mmshare_version>
43012

> <i_f3d_flags>
0

> <s_epik_input>
W0NIM11bQ0hdKFtDSDNdKWMxbm5jKG8xKVtDQEBIXTJbQ0gyXVtOSF1bQ0gyXVtDSDJdTzI=

> <s_epik_cmdline>
J2VwaWtfcHl0aG9uJywgJy1waCcsICc3LjAnLCAnLXRuJywgJzgnLCAnLW1hJywgJzIwMCcsICctbWV0YWxfYmluZGluZycsICctaW1hZScsICc8aW5maWxlLm1hZT4nLCAnLW9tYWUnLCAnPG91dGZpbGUubWFlPic=

> <r_lp_tautomer_probability>
1

> <r_epik_Ionization_Penalty>
0.0380945

> <r_epik_Ionization_Penalty_Charging>
0.0380945

> <r_epik_Ionization_Penalty_Neutral>
3.26791e-13

> <r_epik_State_Penalty>
0.0319257

> <r_epik_Charging_Adjusted_Penalty>
0.0700202

> <i_epik_Tot_Q>
1

> <i_epik_Tot_abs_Q>
1

> <r_epik_Metal_State_Penalty>
0.0319257

> <b_epik_Metal_Only>
0

> <s_lp_Force_Field>
OPLS_2005

> <r_lp_Energy>
10.6056

> <b_lp_Chiralities_Consistent>
1

> <s_lp_Variant>
AV-unprocessed.smi:3122-1

> <Gold.Version>
5.8.1

> <Gold.Id.Protein>
6NUR|6NUR_protein|mol2

> <Gold.PLP.Fitness>
36.7977

> <Gold.PLP.PLP>
-28.0191

> <Gold.PLP.part.hbond>
-3.1145

> <Gold.PLP.part.metal>
0.0000

> <Gold.PLP.part.buried>
-2.1372

> <Gold.PLP.part.nonpolar>
-22.5592

> <Gold.PLP.part.repulsive>
0.1327

> <Gold.PLP.ligand.clash>
0.0000

> <Gold.PLP.ligand.torsion>
0.0840

> <Gold.PLP.Chemscore.Hbond>
2.9500

> <Gold.PLP.Chemscore.CHOScore>
0.0000

> <Gold.PLP.Chemscore.Metal>
0.0000

> <Gold.Chemscore.Hbonds>
donor molecule, donor type, donor heavy atom, donor atom, acceptor molecule, acceptor atom, score
      L1  H    10    25       P1  8029  2.00
      P1  H  7997  8008       L1     5  0.95

> <Gold.PLP.Chemscore.Internal.Correction>
0.0966

> <Gold.Rescore>
     Score         DG    S(hbond)    S(metal)    S(lipo)     H(rot)  DE(clash)    DE(int)     intcor
     12.43     -12.58       0.88        0.00      63.29       1.26       0.04       0.12       ----

> <Gold.Chemscore.Fitness>
12.4282

> <Gold.Chemscore.DG>
-12.5850

> <Gold.Chemscore.ZeroCoef>
-5.4800

> <Gold.Chemscore.Hbond>
0.8778

> <Gold.Chemscore.Metal>
0.0000

> <Gold.Chemscore.Lipo>
63.2901

> <Gold.Chemscore.Internal_Hbond>
0.0000

> <Gold.Chemscore.DEClash>
0.0392

> <Gold.Chemscore.DEInternal>
0.1176

> <Gold.Chemscore.Rot>
1.2625

> <Gold.Chemscore.Internal.Correction>
   9.000000E+99

> <Gold.Chemscore.Hbonds>
donor molecule, donor type, donor heavy atom, donor atom, acceptor molecule, acceptor atom, score
      L1  H    10    25       P1  8029  0.34
      P1  H  7997  8008       L1     5  0.06

> <Gold.Chemscore.Hbond.Weighted>
-2.9320

> <Gold.Chemscore.Metal.Weighted>
-0.0000

> <Gold.Chemscore.Lipo.Weighted>
-7.4049

> <Gold.Chemscore.Internal_Hbond.Weighted>
0.0000

> <Gold.Chemscore.DEClash.Weighted>
0.0392

> <Gold.Chemscore.DEInternal.Weighted>
0.1176

> <Gold.Chemscore.Rot.Weighted>
3.2320

> <Gold.Chemscore.Internal.Correction.Weighted>
   9.000000E+99

> <Gold.Protein.RotatedTorsions>
[ 6907 6896 6895 6894 ] final -109.94 input  -60.11 | X-H torsion
[ 7974 7965 7964 7962 ] final -171.01 input  175.53 | X-H torsion
[ 8008 7997 7996 7995 ] final  -73.65 input   59.86 | X-H torsion
[ 10167 10162 10161 10158 ] final   40.36 input  -65.29 | X-H torsion
[ 10718 10713 10712 10709 ] final  101.48 input   66.30 | X-H torsion
[ 10763 10752 10751 10750 ] final  -14.08 input  -60.55 | X-H torsion
[ 11005 11000 10999 10996 ] final  -71.08 input  -57.11 | X-H torsion

> <Gold.Protein.ActiveResidues>
 VAL166  LYS551  ARG553  GLY616  TRP617  ASP618  TYR619  PRO620  LYS621  CYS622 
 ASP623  PHE694  ASN695  SER759  ASP760  ASP761  ALA762  ILE779  LEU786  VAL792 
 PHE793  MET794  SER795  GLU796  ALA797  LYS798  CYS799  TRP800  GLU811  SER814 

> <Gold.Protein.RotatedAtoms>
  150.7593  133.9455  159.3469 H   0  0  0  0  0  0  0  0  0  0  0  0  # atno 6907 bound_to 6896
  151.7368  135.0861  160.0318 H   0  0  0  0  0  0  0  0  0  0  0  0  # atno 6908 bound_to 6896
  152.3554  133.6194  159.6011 H   0  0  0  0  0  0  0  0  0  0  0  0  # atno 6909 bound_to 6896
  144.7162  140.1986  143.6340 H   0  0  0  0  0  0  0  0  0  0  0  0  # atno 7974 bound_to 7965
  154.5264  140.0775  156.8267 H   0  0  0  0  0  0  0  0  0  0  0  0  # atno 8008 bound_to 7997
  155.3466  140.3410  155.4221 H   0  0  0  0  0  0  0  0  0  0  0  0  # atno 8009 bound_to 7997
  156.1736  140.1628  156.8389 H   0  0  0  0  0  0  0  0  0  0  0  0  # atno 8010 bound_to 7997
  140.3749  144.2056  150.6132 H   0  0  0  0  0  0  0  0  0  0  0  0  # atno 10167 bound_to 10162
  157.6828  131.0727  150.5259 H   0  0  0  0  0  0  0  0  0  0  0  0  # atno 10718 bound_to 10713
  153.5229  135.7015  153.5722 H   0  0  0  0  0  0  0  0  0  0  0  0  # atno 10763 bound_to 10752
  153.3763  135.3931  155.1825 H   0  0  0  0  0  0  0  0  0  0  0  0  # atno 10764 bound_to 10752
  154.8693  135.3824  154.4719 H   0  0  0  0  0  0  0  0  0  0  0  0  # atno 10765 bound_to 10752
  141.1586  133.6807  156.6851 H   0  0  0  0  0  0  0  0  0  0  0  0  # atno 11005 bound_to 11000
  145.8701  139.2267  143.1666 LP  0  0  0  0  0  0  0  0  0  0  0  0  # atno 17320 bound_to 7965
  146.0093  140.8450  142.9979 LP  0  0  0  0  0  0  0  0  0  0  0  0  # atno 17321 bound_to 7965
  140.4996  143.2322  151.8698 LP  0  0  0  0  0  0  0  0  0  0  0  0  # atno 17342 bound_to 10162
  139.4800  144.5074  151.8978 LP  0  0  0  0  0  0  0  0  0  0  0  0  # atno 17343 bound_to 10162
  156.5571  130.4246  149.6080 LP  0  0  0  0  0  0  0  0  0  0  0  0  # atno 17370 bound_to 10713
  156.2853  130.7094  151.1928 LP  0  0  0  0  0  0  0  0  0  0  0  0  # atno 17371 bound_to 10713
  140.3073  134.8115  157.4147 LP  0  0  0  0  0  0  0  0  0  0  0  0  # atno 17394 bound_to 11000
  140.1210  134.5220  155.8184 LP  0  0  0  0  0  0  0  0  0  0  0  0  # atno 17395 bound_to 11000

$$$$
