AV-unprocessed.smi:1648|AV-procd|sdf|6632|dock4
  -GOLD-   22720 7333D 1   1.00000     0.00000
 Structure written by MMmdl.
 41 41  0  0  0  0  0  0  0  0  1 V2000
  143.4895  140.2336  156.5442 C   0  0  0  0  0  0  0  0  0  0  0  0
  142.6872  139.1394  155.8373 C   0  0  0  0  0  0  0  0  0  0  0  0
  142.4596  138.0841  156.4241 O   0  0  0  0  0  0  0  0  0  0  0  0
  142.2422  139.3514  154.5862 N   0  0  0  0  0  0  0  0  0  0  0  0
  141.4633  138.4365  153.7452 C   0  0  1  0  0  0  0  0  0  0  0  0
  142.3396  137.2199  153.3844 C   0  0  0  0  0  0  0  0  0  0  0  0
  141.9923  136.0817  153.7028 O   0  0  0  0  0  0  0  0  0  0  0  0
  143.4745  137.4839  152.7170 N   0  0  0  0  0  0  0  0  0  0  0  0
  144.4902  136.5066  152.3288 C   0  0  2  0  0  0  0  0  0  0  0  0
  145.8491  137.2167  152.2620 C   0  0  0  0  0  0  0  0  0  0  0  0
  144.1449  135.8376  150.9801 C   0  0  0  0  0  0  0  0  0  0  0  0
  144.7562  134.5307  150.8150 N   0  0  0  0  0  0  0  0  0  0  0  0
  146.1004  134.2085  150.9541 C   0  0  0  0  0  0  0  0  0  0  0  0
  146.2118  132.8614  150.6946 C   0  0  0  0  0  0  0  0  0  0  0  0
  144.9607  132.3413  150.3726 N   0  0  0  0  0  0  0  0  0  0  0  0
  144.1522  133.3897  150.4553 C   0  0  0  0  0  0  0  0  0  0  0  0
  140.2061  137.9707  154.5386 C   0  0  0  0  0  0  0  0  0  0  0  0
  139.2565  137.0947  153.6961 C   0  0  0  0  0  0  0  0  0  0  0  0
  139.4065  139.1576  155.1132 C   0  0  0  0  0  0  0  0  0  0  0  0
  144.4051  140.4594  155.9973 H   0  0  0  0  0  0  0  0  0  0  0  0
  143.7718  139.9128  157.5474 H   0  0  0  0  0  0  0  0  0  0  0  0
  142.9016  141.1466  156.6387 H   0  0  0  0  0  0  0  0  0  0  0  0
  142.4545  140.2491  154.1757 H   0  0  0  0  0  0  0  0  0  0  0  0
  141.1419  138.9499  152.8373 H   0  0  0  0  0  0  0  0  0  0  0  0
  143.6678  138.4484  152.4890 H   0  0  0  0  0  0  0  0  0  0  0  0
  144.5718  135.7382  153.1000 H   0  0  0  0  0  0  0  0  0  0  0  0
  146.6467  136.5156  152.0144 H   0  0  0  0  0  0  0  0  0  0  0  0
  146.1013  137.6744  153.2194 H   0  0  0  0  0  0  0  0  0  0  0  0
  145.8503  138.0024  151.5055 H   0  0  0  0  0  0  0  0  0  0  0  0
  143.0639  135.7433  150.8649 H   0  0  0  0  0  0  0  0  0  0  0  0
  144.4913  136.4622  150.1559 H   0  0  0  0  0  0  0  0  0  0  0  0
  146.8443  134.9416  151.2282 H   0  0  0  0  0  0  0  0  0  0  0  0
  147.0904  132.2335  150.7070 H   0  0  0  0  0  0  0  0  0  0  0  0
  143.0937  133.3240  150.2505 H   0  0  0  0  0  0  0  0  0  0  0  0
  140.5358  137.3683  155.3875 H   0  0  0  0  0  0  0  0  0  0  0  0
  138.9082  137.6283  152.8112 H   0  0  0  0  0  0  0  0  0  0  0  0
  138.3785  136.8017  154.2721 H   0  0  0  0  0  0  0  0  0  0  0  0
  139.7330  136.1752  153.3619 H   0  0  0  0  0  0  0  0  0  0  0  0
  139.0789  139.8324  154.3217 H   0  0  0  0  0  0  0  0  0  0  0  0
  139.9901  139.7393  155.8268 H   0  0  0  0  0  0  0  0  0  0  0  0
  138.5175  138.8125  155.6420 H   0  0  0  0  0  0  0  0  0  0  0  0
  1  2  1  0  0  0  0
  1 20  1  0  0  0  0
  1 21  1  0  0  0  0
  1 22  1  0  0  0  0
  2  3  2  0  0  0  0
  2  4  1  0  0  0  0
  4  5  1  0  0  0  0
  4 23  1  0  0  0  0
  5  6  1  0  0  0  0
  5 17  1  0  0  0  0
  5 24  1  0  0  0  0
  6  7  2  0  0  0  0
  6  8  1  0  0  0  0
  8  9  1  0  0  0  0
  8 25  1  0  0  0  0
  9 10  1  0  0  0  0
  9 11  1  0  0  0  0
  9 26  1  0  0  0  0
 10 27  1  0  0  0  0
 10 28  1  0  0  0  0
 10 29  1  0  0  0  0
 11 12  1  0  0  0  0
 11 30  1  0  0  0  0
 11 31  1  0  0  0  0
 12 16  1  0  0  0  0
 12 13  1  0  0  0  0
 13 14  2  0  0  0  0
 13 32  1  0  0  0  0
 14 15  1  0  0  0  0
 14 33  1  0  0  0  0
 15 16  2  0  0  0  0
 16 34  1  0  0  0  0
 17 18  1  0  0  0  0
 17 19  1  0  0  0  0
 17 35  1  0  0  0  0
 18 36  1  0  0  0  0
 18 37  1  0  0  0  0
 18 38  1  0  0  0  0
 19 39  1  0  0  0  0
 19 40  1  0  0  0  0
 19 41  1  0  0  0  0
M  END
> <s_m_source_file>
AV-unprocessed.smi

> <i_m_source_file_index>
1648

> <i_lp_mmshare_version>
43012

> <i_f3d_flags>
0

> <s_epik_input>
W0NIM11DKD1PKVtOSF1bQ0BASF0oW0NIXShbQ0gzXSlbQ0gzXSlDKD1PKVtOSF1bQ0BIXShbQ0gzXSlbQ0gyXW4xW2NIXVtjSF1uW2NIXTE=

> <s_epik_cmdline>
J2VwaWtfcHl0aG9uJywgJy1waCcsICc3LjAnLCAnLXRuJywgJzgnLCAnLW1hJywgJzIwMCcsICctbWV0YWxfYmluZGluZycsICctaW1hZScsICc8aW5maWxlLm1hZT4nLCAnLW9tYWUnLCAnPG91dGZpbGUubWFlPic=

> <r_lp_tautomer_probability>
1

> <r_epik_Ionization_Penalty>
0.628885

> <r_epik_Ionization_Penalty_Charging>
0.628884

> <r_epik_Ionization_Penalty_Neutral>
4.35155e-07

> <r_epik_State_Penalty>
0.64556

> <r_epik_Charging_Adjusted_Penalty>
1.27444

> <i_epik_Tot_Q>
0

> <i_epik_Tot_abs_Q>
0

> <r_epik_Metal_State_Penalty>
0.30874

> <b_epik_Metal_Only>
0

> <s_lp_Force_Field>
OPLS_2005

> <r_lp_Energy>
9.77282

> <b_lp_Chiralities_Consistent>
1

> <s_lp_Variant>
AV-unprocessed.smi:1648-6

> <Gold.Version>
5.8.1

> <Gold.Id.Protein>
6NUR|6NUR_protein|mol2

> <Gold.PLP.Fitness>
41.0959

> <Gold.PLP.PLP>
-29.1654

> <Gold.PLP.part.hbond>
-3.0000

> <Gold.PLP.part.metal>
0.0000

> <Gold.PLP.part.buried>
-2.9847

> <Gold.PLP.part.nonpolar>
-23.2744

> <Gold.PLP.part.repulsive>
0.3037

> <Gold.PLP.ligand.clash>
0.0000

> <Gold.PLP.ligand.torsion>
0.7827

> <Gold.PLP.Chemscore.Hbond>
1.4960

> <Gold.PLP.Chemscore.CHOScore>
2.9796

> <Gold.PLP.Chemscore.Metal>
0.0000

> <Gold.Chemscore.Hbonds>
donor molecule, donor type, donor heavy atom, donor atom, acceptor molecule, acceptor atom, score
      L1  H     4    23       P1 10175  0.47
      L1  H     8    25       P1 10175  1.00
      L1  C    13    32       P1  7948  1.00
      L1  C    14    33       P1 10747  1.00
      L1  C    16    34       P1 10186  1.00

> <Gold.PLP.Chemscore.Internal.Correction>
0.0693

> <Gold.Rescore>
     Score         DG    S(hbond)    S(metal)    S(lipo)     H(rot)  DE(clash)    DE(int)     intcor
      6.21      -9.74       1.42        0.00      50.95       2.52       0.06       3.47       ----

> <Gold.Chemscore.Fitness>
6.2091

> <Gold.Chemscore.DG>
-9.7415

> <Gold.Chemscore.ZeroCoef>
-5.4800

> <Gold.Chemscore.Hbond>
1.4238

> <Gold.Chemscore.Metal>
0.0000

> <Gold.Chemscore.Lipo>
50.9496

> <Gold.Chemscore.Internal_Hbond>
0.0000

> <Gold.Chemscore.DEClash>
0.0577

> <Gold.Chemscore.DEInternal>
3.4747

> <Gold.Chemscore.Rot>
2.5216

> <Gold.Chemscore.Internal.Correction>
   9.000000E+99

> <Gold.Chemscore.Hbonds>
donor molecule, donor type, donor heavy atom, donor atom, acceptor molecule, acceptor atom, score
      L1  H     4    23       P1 10175  0.41
      L1  H     8    25       P1 10175  0.97

> <Gold.Chemscore.Hbond.Weighted>
-4.7556

> <Gold.Chemscore.Metal.Weighted>
-0.0000

> <Gold.Chemscore.Lipo.Weighted>
-5.9611

> <Gold.Chemscore.Internal_Hbond.Weighted>
0.0000

> <Gold.Chemscore.DEClash.Weighted>
0.0577

> <Gold.Chemscore.DEInternal.Weighted>
3.4747

> <Gold.Chemscore.Rot.Weighted>
6.4553

> <Gold.Chemscore.Internal.Correction.Weighted>
   9.000000E+99

> <Gold.Protein.RotatedTorsions>
[ 6907 6896 6895 6894 ] final   44.69 input  -60.11 | X-H torsion
[ 7974 7965 7964 7962 ] final  -31.49 input  175.53 | X-H torsion
[ 8008 7997 7996 7995 ] final   79.07 input   59.86 | X-H torsion
[ 10167 10162 10161 10158 ] final  161.82 input  -65.29 | X-H torsion
[ 10718 10713 10712 10709 ] final -103.81 input   66.30 | X-H torsion
[ 10763 10752 10751 10750 ] final -173.69 input  -60.55 | X-H torsion
[ 11005 11000 10999 10996 ] final   47.45 input  -57.11 | X-H torsion

> <Gold.Protein.ActiveResidues>
 VAL166  LYS551  ARG553  GLY616  TRP617  ASP618  TYR619  PRO620  LYS621  CYS622 
 ASP623  PHE694  ASN695  SER759  ASP760  ASP761  ALA762  ILE779  LEU786  VAL792 
 PHE793  MET794  SER795  GLU796  ALA797  LYS798  CYS799  TRP800  GLU811  SER814 

> <Gold.Protein.RotatedAtoms>
  152.2355  134.8280  160.0467 H   0  0  0  0  0  0  0  0  0  0  0  0  # atno 6907 bound_to 6896
  151.9013  133.3533  159.3840 H   0  0  0  0  0  0  0  0  0  0  0  0  # atno 6908 bound_to 6896
  150.7038  134.4751  159.5488 H   0  0  0  0  0  0  0  0  0  0  0  0  # atno 6909 bound_to 6896
  146.1063  140.5674  142.8798 H   0  0  0  0  0  0  0  0  0  0  0  0  # atno 7974 bound_to 7965
  155.8646  140.3452  155.5779 H   0  0  0  0  0  0  0  0  0  0  0  0  # atno 8008 bound_to 7997
  155.7896  140.0870  157.2035 H   0  0  0  0  0  0  0  0  0  0  0  0  # atno 8009 bound_to 7997
  154.4013  140.1485  156.3134 H   0  0  0  0  0  0  0  0  0  0  0  0  # atno 8010 bound_to 7997
  139.4853  144.4499  151.8843 H   0  0  0  0  0  0  0  0  0  0  0  0  # atno 10167 bound_to 10162
  156.0280  130.5485  150.7306 H   0  0  0  0  0  0  0  0  0  0  0  0  # atno 10718 bound_to 10713
  154.6050  135.2858  155.0495 H   0  0  0  0  0  0  0  0  0  0  0  0  # atno 10763 bound_to 10752
  154.1746  135.6467  153.5022 H   0  0  0  0  0  0  0  0  0  0  0  0  # atno 10764 bound_to 10752
  153.0172  135.5409  154.6782 H   0  0  0  0  0  0  0  0  0  0  0  0  # atno 10765 bound_to 10752
  140.1278  134.4745  155.8545 H   0  0  0  0  0  0  0  0  0  0  0  0  # atno 11005 bound_to 11000
  144.7474  140.5102  143.6826 LP  0  0  0  0  0  0  0  0  0  0  0  0  # atno 17320 bound_to 7965
  145.5754  139.1486  143.3265 LP  0  0  0  0  0  0  0  0  0  0  0  0  # atno 17321 bound_to 7965
  140.3955  144.2560  150.5896 LP  0  0  0  0  0  0  0  0  0  0  0  0  # atno 17342 bound_to 10162
  140.5106  143.2292  151.8541 LP  0  0  0  0  0  0  0  0  0  0  0  0  # atno 17343 bound_to 10162
  157.4899  131.0910  151.0438 LP  0  0  0  0  0  0  0  0  0  0  0  0  # atno 17370 bound_to 10713
  157.0848  130.5918  149.5427 LP  0  0  0  0  0  0  0  0  0  0  0  0  # atno 17371 bound_to 10713
  141.2164  133.6784  156.7012 LP  0  0  0  0  0  0  0  0  0  0  0  0  # atno 17394 bound_to 11000
  140.2881  134.8263  157.3992 LP  0  0  0  0  0  0  0  0  0  0  0  0  # atno 17395 bound_to 11000

$$$$
