AV-unprocessed.smi:2439|AV-procd|sdf|9610|dock10
  -GOLD-   2272013243D 1   1.00000     0.00000
 Structure written by MMmdl.
 41 43  0  0  0  0  0  0  0  0  2 V2000
  150.3029  136.6756  159.0211 N   0  0  0  0  0  0  0  0  0  0  0  0
  150.2327  137.7150  158.5179 C   0  0  0  0  0  0  0  0  0  0  0  0
  150.1448  139.0256  157.8850 C   0  0  0  0  0  0  0  0  0  0  0  0
  151.0383  140.0399  158.2881 C   0  0  0  0  0  0  0  0  0  0  0  0
  150.9547  141.3073  157.6834 C   0  0  0  0  0  0  0  0  0  0  0  0
  149.9765  141.5095  156.6933 C   0  0  0  0  0  0  0  0  0  0  0  0
  149.1155  140.5484  156.2985 N   0  0  0  0  0  0  0  0  0  0  0  0
  149.1891  139.3240  156.8765 C   0  0  0  0  0  0  0  0  0  0  0  0
  148.2811  138.3399  156.4426 N   0  0  0  0  0  0  0  0  0  0  0  0
  147.0856  138.6719  155.6765 C   0  0  0  0  0  0  0  0  0  0  0  0
  147.0399  137.9534  154.3173 C   0  0  1  0  0  0  0  0  0  0  0  0
  146.5224  136.5108  154.4573 C   0  0  0  0  0  0  0  0  0  0  0  0
  146.4219  135.8635  153.1289 N   0  3  1  0  0  0  0  0  0  0  0  0
  145.9685  134.4527  153.2196 C   0  0  0  0  0  0  0  0  0  0  0  0
  145.9664  133.7830  151.8362 C   0  0  0  0  0  0  0  0  0  0  0  0
  145.1042  134.5774  150.8469 C   0  0  0  0  0  0  0  0  0  0  0  0
  145.5754  136.0369  150.7928 C   0  0  0  0  0  0  0  0  0  0  0  0
  145.5897  136.6726  152.1972 C   0  0  2  0  0  0  0  0  0  0  0  0
  146.1117  138.1223  152.1512 C   0  0  0  0  0  0  0  0  0  0  0  0
  146.1492  138.6652  153.4648 O   0  0  0  0  0  0  0  0  0  0  0  0
  151.7807  139.8545  159.0514 H   0  0  0  0  0  0  0  0  0  0  0  0
  151.6245  142.1042  157.9710 H   0  0  0  0  0  0  0  0  0  0  0  0
  149.8811  142.4684  156.2060 H   0  0  0  0  0  0  0  0  0  0  0  0
  148.3985  137.3872  156.7574 H   0  0  0  0  0  0  0  0  0  0  0  0
  146.2003  138.4296  156.2656 H   0  0  0  0  0  0  0  0  0  0  0  0
  147.0609  139.7513  155.5254 H   0  0  0  0  0  0  0  0  0  0  0  0
  148.0374  137.9351  153.8752 H   0  0  0  0  0  0  0  0  0  0  0  0
  147.1980  135.9352  155.0915 H   0  0  0  0  0  0  0  0  0  0  0  0
  145.5446  136.5063  154.9419 H   0  0  0  0  0  0  0  0  0  0  0  0
  146.6276  133.9005  153.8908 H   0  0  0  0  0  0  0  0  0  0  0  0
  144.9687  134.4165  153.6556 H   0  0  0  0  0  0  0  0  0  0  0  0
  146.9881  133.7134  151.4603 H   0  0  0  0  0  0  0  0  0  0  0  0
  145.5953  132.7610  151.9172 H   0  0  0  0  0  0  0  0  0  0  0  0
  145.1568  134.1273  149.8551 H   0  0  0  0  0  0  0  0  0  0  0  0
  144.0582  134.5381  151.1537 H   0  0  0  0  0  0  0  0  0  0  0  0
  146.5748  136.0792  150.3571 H   0  0  0  0  0  0  0  0  0  0  0  0
  144.9254  136.6085  150.1293 H   0  0  0  0  0  0  0  0  0  0  0  0
  144.5687  136.6887  152.5833 H   0  0  0  0  0  0  0  0  0  0  0  0
  147.1040  138.1705  151.6995 H   0  0  0  0  0  0  0  0  0  0  0  0
  145.4547  138.7400  151.5384 H   0  0  0  0  0  0  0  0  0  0  0  0
  147.3552  135.8454  152.7432 H   0  0  0  0  0  0  0  0  0  0  0  0
  1  2  3  0  0  0  0
  2  3  1  0  0  0  0
  3  8  1  0  0  0  0
  3  4  2  0  0  0  0
  4  5  1  0  0  0  0
  4 21  1  0  0  0  0
  5  6  2  0  0  0  0
  5 22  1  0  0  0  0
  6  7  1  0  0  0  0
  6 23  1  0  0  0  0
  7  8  2  0  0  0  0
  8  9  1  0  0  0  0
  9 10  1  0  0  0  0
  9 24  1  0  0  0  0
 10 11  1  0  0  0  0
 10 25  1  0  0  0  0
 10 26  1  0  0  0  0
 11 20  1  0  0  0  0
 11 12  1  0  0  0  0
 11 27  1  0  0  0  0
 12 13  1  0  0  0  0
 12 28  1  0  0  0  0
 12 29  1  0  0  0  0
 13 18  1  0  0  0  0
 13 14  1  0  0  0  0
 13 41  1  0  0  0  0
 14 15  1  0  0  0  0
 14 30  1  0  0  0  0
 14 31  1  0  0  0  0
 15 16  1  0  0  0  0
 15 32  1  0  0  0  0
 15 33  1  0  0  0  0
 16 17  1  0  0  0  0
 16 34  1  0  0  0  0
 16 35  1  0  0  0  0
 17 18  1  0  0  0  0
 17 36  1  0  0  0  0
 17 37  1  0  0  0  0
 18 19  1  0  0  0  0
 18 38  1  0  0  0  0
 19 20  1  0  0  0  0
 19 39  1  0  0  0  0
 19 40  1  0  0  0  0
M  CHG  1  13   1
M  END
> <s_m_source_file>
AV-unprocessed.smi

> <i_m_source_file_index>
2439

> <i_lp_mmshare_version>
43012

> <i_f3d_flags>
0

> <s_epik_input>
TiNDYzFbY0hdW2NIXVtjSF1uYzFbTkhdW0NIMl1bQ0BIXShbQ0gyXTIpT1tDSDJdW0NAQEhdKE4yMylbQ0gyXVtDSDJdW0NIMl1bQ0gyXTM=

> <s_epik_cmdline>
J2VwaWtfcHl0aG9uJywgJy1waCcsICc3LjAnLCAnLXRuJywgJzgnLCAnLW1hJywgJzIwMCcsICctbWV0YWxfYmluZGluZycsICctaW1hZScsICc8aW5maWxlLm1hZT4nLCAnLW9tYWUnLCAnPG91dGZpbGUubWFlPic=

> <r_epik_Ionization_Penalty>
0.0803594

> <r_epik_Ionization_Penalty_Charging>
0.0803403

> <r_epik_Ionization_Penalty_Neutral>
1.90988e-05

> <r_epik_State_Penalty>
0.0711481

> <r_epik_Charging_Adjusted_Penalty>
0.151488

> <i_epik_Tot_Q>
1

> <i_epik_Tot_abs_Q>
1

> <r_epik_Metal_State_Penalty>
0.0711482

> <b_epik_Metal_Only>
0

> <s_lp_Force_Field>
OPLS_2005

> <r_lp_Energy>
27.3027

> <b_lp_Chiralities_Consistent>
1

> <s_lp_Variant>
AV-unprocessed.smi:2439-8

> <Gold.Version>
5.8.1

> <Gold.Id.Protein>
6NUR|6NUR_protein|mol2

> <Gold.PLP.Fitness>
36.7828

> <Gold.PLP.PLP>
-25.3098

> <Gold.PLP.part.hbond>
-2.0000

> <Gold.PLP.part.metal>
0.0000

> <Gold.PLP.part.buried>
-5.1320

> <Gold.PLP.part.nonpolar>
-20.0706

> <Gold.PLP.part.repulsive>
0.2580

> <Gold.PLP.ligand.clash>
0.0000

> <Gold.PLP.ligand.torsion>
0.2640

> <Gold.PLP.Chemscore.Hbond>
3.0000

> <Gold.PLP.Chemscore.CHOScore>
1.0000

> <Gold.PLP.Chemscore.Metal>
0.0000

> <Gold.Chemscore.Hbonds>
donor molecule, donor type, donor heavy atom, donor atom, acceptor molecule, acceptor atom, score
      L1  H    13    41       P1  7948  2.00
      P1  H  6896  6908       L1     1  1.00
      L1  C     6    23       P1  8028  1.00

> <Gold.PLP.Chemscore.Internal.Correction>
0.0010

> <Gold.Rescore>
     Score         DG    S(hbond)    S(metal)    S(lipo)     H(rot)  DE(clash)    DE(int)     intcor
     15.80     -15.99       1.99        0.00      60.76       1.27       0.00       0.20       ----

> <Gold.Chemscore.Fitness>
15.7952

> <Gold.Chemscore.DG>
-15.9950

> <Gold.Chemscore.ZeroCoef>
-5.4800

> <Gold.Chemscore.Hbond>
1.9901

> <Gold.Chemscore.Metal>
0.0000

> <Gold.Chemscore.Lipo>
60.7587

> <Gold.Chemscore.Internal_Hbond>
0.0000

> <Gold.Chemscore.DEClash>
0.0015

> <Gold.Chemscore.DEInternal>
0.1983

> <Gold.Chemscore.Rot>
1.2659

> <Gold.Chemscore.Internal.Correction>
   9.000000E+99

> <Gold.Chemscore.Hbonds>
donor molecule, donor type, donor heavy atom, donor atom, acceptor molecule, acceptor atom, score
      L1  H    13    41       P1  7948  1.00
      P1  H  6896  6908       L1     1  0.98

> <Gold.Chemscore.Hbond.Weighted>
-6.6470

> <Gold.Chemscore.Metal.Weighted>
-0.0000

> <Gold.Chemscore.Lipo.Weighted>
-7.1088

> <Gold.Chemscore.Internal_Hbond.Weighted>
0.0000

> <Gold.Chemscore.DEClash.Weighted>
0.0015

> <Gold.Chemscore.DEInternal.Weighted>
0.1983

> <Gold.Chemscore.Rot.Weighted>
3.2408

> <Gold.Chemscore.Internal.Correction.Weighted>
   9.000000E+99

> <Gold.Protein.RotatedTorsions>
[ 6907 6896 6895 6894 ] final -150.23 input  -60.11 | X-H torsion
[ 7974 7965 7964 7962 ] final   34.13 input  175.53 | X-H torsion
[ 8008 7997 7996 7995 ] final   80.08 input   59.86 | X-H torsion
[ 10167 10162 10161 10158 ] final   65.88 input  -65.29 | X-H torsion
[ 10718 10713 10712 10709 ] final  -76.46 input   66.30 | X-H torsion
[ 10763 10752 10751 10750 ] final  -68.13 input  -60.55 | X-H torsion
[ 11005 11000 10999 10996 ] final  121.57 input  -57.11 | X-H torsion

> <Gold.Protein.ActiveResidues>
 VAL166  LYS551  ARG553  GLY616  TRP617  ASP618  TYR619  PRO620  LYS621  CYS622 
 ASP623  PHE694  ASN695  SER759  ASP760  ASP761  ALA762  ILE779  LEU786  VAL792 
 PHE793  MET794  SER795  GLU796  ALA797  LYS798  CYS799  TRP800  GLU811  SER814 

> <Gold.Protein.RotatedAtoms>
  151.1955  133.4641  159.2595 H   0  0  0  0  0  0  0  0  0  0  0  0  # atno 6907 bound_to 6896
  151.1121  135.0032  159.8509 H   0  0  0  0  0  0  0  0  0  0  0  0  # atno 6908 bound_to 6896
  152.5451  134.1874  159.8713 H   0  0  0  0  0  0  0  0  0  0  0  0  # atno 6909 bound_to 6896
  146.1374  139.6309  142.9186 H   0  0  0  0  0  0  0  0  0  0  0  0  # atno 7974 bound_to 7965
  155.8786  140.3445  155.5872 H   0  0  0  0  0  0  0  0  0  0  0  0  # atno 8008 bound_to 7997
  155.7746  140.0850  157.2110 H   0  0  0  0  0  0  0  0  0  0  0  0  # atno 8009 bound_to 7997
  154.4023  140.1512  156.2968 H   0  0  0  0  0  0  0  0  0  0  0  0  # atno 8010 bound_to 7997
  140.1064  144.4857  150.7005 H   0  0  0  0  0  0  0  0  0  0  0  0  # atno 10167 bound_to 10162
  156.0174  130.4466  150.3197 H   0  0  0  0  0  0  0  0  0  0  0  0  # atno 10718 bound_to 10713
  154.3846  135.6066  153.5809 H   0  0  0  0  0  0  0  0  0  0  0  0  # atno 10763 bound_to 10752
  152.9788  135.5869  154.4370 H   0  0  0  0  0  0  0  0  0  0  0  0  # atno 10764 bound_to 10752
  154.4144  135.2845  155.1994 H   0  0  0  0  0  0  0  0  0  0  0  0  # atno 10765 bound_to 10752
  139.9231  134.9639  156.7977 H   0  0  0  0  0  0  0  0  0  0  0  0  # atno 11005 bound_to 11000
  145.5125  141.0435  143.2480 LP  0  0  0  0  0  0  0  0  0  0  0  0  # atno 17320 bound_to 7965
  144.7755  139.6640  143.7177 LP  0  0  0  0  0  0  0  0  0  0  0  0  # atno 17321 bound_to 7965
  140.6949  143.2398  151.5027 LP  0  0  0  0  0  0  0  0  0  0  0  0  # atno 17342 bound_to 10162
  139.5643  144.2081  152.1740 LP  0  0  0  0  0  0  0  0  0  0  0  0  # atno 17343 bound_to 10162
  157.1297  131.0268  151.2974 LP  0  0  0  0  0  0  0  0  0  0  0  0  # atno 17370 bound_to 10713
  157.4560  130.7626  149.7193 LP  0  0  0  0  0  0  0  0  0  0  0  0  # atno 17371 bound_to 10713
  140.6415  133.9814  155.7710 LP  0  0  0  0  0  0  0  0  0  0  0  0  # atno 17394 bound_to 11000
  141.0768  134.0123  157.3446 LP  0  0  0  0  0  0  0  0  0  0  0  0  # atno 17395 bound_to 11000

$$$$
