AV-unprocessed.smi:1101|AV-procd|sdf|4766|dock3
  -GOLD-   22720 3303D 1   1.00000     0.00000
 Structure written by MMmdl.
 41 42  0  0  0  0  0  0  0  0  1 V2000
  147.6010  140.5852  153.9825 C   0  0  0  0  0  0  0  0  0  0  0  0
  148.9646  141.0753  154.4850 C   0  0  0  0  0  0  0  0  0  0  0  0
  149.8689  139.9339  154.9759 C   0  0  1  0  0  0  0  0  0  0  0  0
  149.8314  138.7167  154.0286 C   0  0  0  0  0  0  0  0  0  0  0  0
  150.7493  137.6943  154.5520 N   0  0  0  0  0  0  0  0  0  0  0  0
  150.4082  136.5119  155.1223 C   0  0  0  0  0  0  0  0  0  0  0  0
  151.2230  135.7672  155.6693 O   0  0  0  0  0  0  0  0  0  0  0  0
  149.1068  136.1928  155.0198 N   0  0  0  0  0  0  0  0  0  0  0  0
  148.4932  134.9765  155.5401 C   0  0  0  0  0  0  0  0  0  0  0  0
  148.5219  133.8399  154.5054 C   0  0  0  0  0  0  0  0  0  0  0  0
  147.2736  133.8259  153.6689 C   0  0  0  0  0  0  0  0  0  0  0  0
  146.1220  134.6532  153.8018 C   0  0  0  0  0  0  0  0  0  0  0  0
  145.1912  134.3883  152.8994 N   0  0  0  0  0  0  0  0  0  0  0  0
  145.7135  133.3866  152.1621 N   0  0  0  0  0  0  0  0  0  0  0  0
  144.9498  132.8366  151.0627 C   0  0  0  0  0  0  0  0  0  0  0  0
  146.9682  133.0256  152.6041 C   0  0  0  0  0  0  0  0  0  0  0  0
  152.1172  138.2178  154.5848 C   0  0  0  0  0  0  0  0  0  0  0  0
  152.1425  139.4429  155.5152 C   0  0  0  0  0  0  0  0  0  0  0  0
  151.2110  140.4161  155.0480 O   0  0  0  0  0  0  0  0  0  0  0  0
  146.9967  141.4194  153.6255 H   0  0  0  0  0  0  0  0  0  0  0  0
  147.0422  140.0872  154.7754 H   0  0  0  0  0  0  0  0  0  0  0  0
  147.7152  139.8804  153.1586 H   0  0  0  0  0  0  0  0  0  0  0  0
  149.4631  141.6080  153.6745 H   0  0  0  0  0  0  0  0  0  0  0  0
  148.8193  141.8014  155.2857 H   0  0  0  0  0  0  0  0  0  0  0  0
  149.5431  139.6278  155.9720 H   0  0  0  0  0  0  0  0  0  0  0  0
  148.8047  138.3698  153.9131 H   0  0  0  0  0  0  0  0  0  0  0  0
  150.1556  139.0085  153.0284 H   0  0  0  0  0  0  0  0  0  0  0  0
  148.4973  136.8439  154.5468 H   0  0  0  0  0  0  0  0  0  0  0  0
  149.0424  134.6787  156.4338 H   0  0  0  0  0  0  0  0  0  0  0  0
  147.4694  135.1810  155.8585 H   0  0  0  0  0  0  0  0  0  0  0  0
  149.4007  133.9472  153.8685 H   0  0  0  0  0  0  0  0  0  0  0  0
  148.6458  132.8871  155.0213 H   0  0  0  0  0  0  0  0  0  0  0  0
  145.9371  135.4350  154.5238 H   0  0  0  0  0  0  0  0  0  0  0  0
  145.5524  132.1126  150.5137 H   0  0  0  0  0  0  0  0  0  0  0  0
  144.6506  133.6352  150.3832 H   0  0  0  0  0  0  0  0  0  0  0  0
  144.0587  132.3388  151.4462 H   0  0  0  0  0  0  0  0  0  0  0  0
  147.5358  132.2386  152.1294 H   0  0  0  0  0  0  0  0  0  0  0  0
  152.8471  137.4799  154.9205 H   0  0  0  0  0  0  0  0  0  0  0  0
  152.4212  138.5037  153.5769 H   0  0  0  0  0  0  0  0  0  0  0  0
  151.9024  139.1585  156.5409 H   0  0  0  0  0  0  0  0  0  0  0  0
  153.1382  139.8858  155.5302 H   0  0  0  0  0  0  0  0  0  0  0  0
  1  2  1  0  0  0  0
  1 20  1  0  0  0  0
  1 21  1  0  0  0  0
  1 22  1  0  0  0  0
  2  3  1  0  0  0  0
  2 23  1  0  0  0  0
  2 24  1  0  0  0  0
  3 19  1  0  0  0  0
  3  4  1  0  0  0  0
  3 25  1  0  0  0  0
  4  5  1  0  0  0  0
  4 26  1  0  0  0  0
  4 27  1  0  0  0  0
  5  6  1  0  0  0  0
  5 17  1  0  0  0  0
  6  7  2  0  0  0  0
  6  8  1  0  0  0  0
  8  9  1  0  0  0  0
  8 28  1  0  0  0  0
  9 10  1  0  0  0  0
  9 29  1  0  0  0  0
  9 30  1  0  0  0  0
 10 11  1  0  0  0  0
 10 31  1  0  0  0  0
 10 32  1  0  0  0  0
 11 16  2  0  0  0  0
 11 12  1  0  0  0  0
 12 13  2  0  0  0  0
 12 33  1  0  0  0  0
 13 14  1  0  0  0  0
 14 15  1  0  0  0  0
 14 16  1  0  0  0  0
 15 34  1  0  0  0  0
 15 35  1  0  0  0  0
 15 36  1  0  0  0  0
 16 37  1  0  0  0  0
 17 18  1  0  0  0  0
 17 38  1  0  0  0  0
 17 39  1  0  0  0  0
 18 19  1  0  0  0  0
 18 40  1  0  0  0  0
 18 41  1  0  0  0  0
M  END
> <s_m_source_file>
AV-unprocessed.smi

> <i_m_source_file_index>
1101

> <i_lp_mmshare_version>
43012

> <i_f3d_flags>
0

> <s_epik_input>
W0NIM11bQ0gyXVtDQEBIXTFbQ0gyXU4oW0NIMl1bQ0gyXU8xKUMoPU8pW05IXVtDSDJdW0NIMl1jMltjSF1ubihbQ0gzXSlbY0hdMg==

> <s_epik_cmdline>
J2VwaWtfcHl0aG9uJywgJy1waCcsICc3LjAnLCAnLXRuJywgJzgnLCAnLW1hJywgJzIwMCcsICctbWV0YWxfYmluZGluZycsICctaW1hZScsICc8aW5maWxlLm1hZT4nLCAnLW9tYWUnLCAnPG91dGZpbGUubWFlPic=

> <r_lp_tautomer_probability>
1

> <r_epik_Ionization_Penalty>
0.000536373

> <r_epik_Ionization_Penalty_Charging>
0

> <r_epik_Ionization_Penalty_Neutral>
0.000536373

> <r_epik_State_Penalty>
-0

> <r_epik_Charging_Adjusted_Penalty>
0

> <i_epik_Tot_Q>
0

> <i_epik_Tot_abs_Q>
0

> <r_epik_Metal_State_Penalty>
-0

> <b_epik_Metal_Only>
0

> <s_lp_Force_Field>
OPLS_2005

> <r_lp_Energy>
24.031

> <b_lp_Chiralities_Consistent>
1

> <s_lp_Variant>
AV-unprocessed.smi:1101-2

> <Gold.Version>
5.8.1

> <Gold.Id.Protein>
6NUR|6NUR_protein|mol2

> <Gold.PLP.Fitness>
44.9145

> <Gold.PLP.PLP>
-37.0152

> <Gold.PLP.part.hbond>
-3.0000

> <Gold.PLP.part.metal>
0.0000

> <Gold.PLP.part.buried>
-1.2880

> <Gold.PLP.part.nonpolar>
-33.9145

> <Gold.PLP.part.repulsive>
0.2253

> <Gold.PLP.ligand.clash>
0.0000

> <Gold.PLP.ligand.torsion>
0.5624

> <Gold.PLP.Chemscore.Hbond>
1.9920

> <Gold.PLP.Chemscore.CHOScore>
1.0000

> <Gold.PLP.Chemscore.Metal>
0.0000

> <Gold.Chemscore.Hbonds>
donor molecule, donor type, donor heavy atom, donor atom, acceptor molecule, acceptor atom, score
      P1  H  7989  7998       L1    19  1.00
      P1  H 10752 10765       L1     7  1.00
      L1  C    16    37       P1 10747  0.52

> <Gold.PLP.Chemscore.Internal.Correction>
0.0481

> <Gold.Rescore>
     Score         DG    S(hbond)    S(metal)    S(lipo)     H(rot)  DE(clash)    DE(int)     intcor
     15.19     -15.85       1.48        0.00      79.21       1.51       0.05       0.62       ----

> <Gold.Chemscore.Fitness>
15.1860

> <Gold.Chemscore.DG>
-15.8489

> <Gold.Chemscore.ZeroCoef>
-5.4800

> <Gold.Chemscore.Hbond>
1.4841

> <Gold.Chemscore.Metal>
0.0000

> <Gold.Chemscore.Lipo>
79.2132

> <Gold.Chemscore.Internal_Hbond>
0.0000

> <Gold.Chemscore.DEClash>
0.0452

> <Gold.Chemscore.DEInternal>
0.6177

> <Gold.Chemscore.Rot>
1.5062

> <Gold.Chemscore.Internal.Correction>
   9.000000E+99

> <Gold.Chemscore.Hbonds>
donor molecule, donor type, donor heavy atom, donor atom, acceptor molecule, acceptor atom, score
      P1  H  7989  7998       L1    19  0.40
      P1  H 10752 10765       L1     7  0.95

> <Gold.Chemscore.Hbond.Weighted>
-4.9568

> <Gold.Chemscore.Metal.Weighted>
-0.0000

> <Gold.Chemscore.Lipo.Weighted>
-9.2679

> <Gold.Chemscore.Internal_Hbond.Weighted>
0.0000

> <Gold.Chemscore.DEClash.Weighted>
0.0452

> <Gold.Chemscore.DEInternal.Weighted>
0.6177

> <Gold.Chemscore.Rot.Weighted>
3.8558

> <Gold.Chemscore.Internal.Correction.Weighted>
   9.000000E+99

> <Gold.Protein.RotatedTorsions>
[ 6907 6896 6895 6894 ] final -145.85 input  -60.11 | X-H torsion
[ 7974 7965 7964 7962 ] final -106.47 input  175.53 | X-H torsion
[ 8008 7997 7996 7995 ] final  -61.25 input   59.86 | X-H torsion
[ 10167 10162 10161 10158 ] final   42.42 input  -65.29 | X-H torsion
[ 10718 10713 10712 10709 ] final  129.39 input   66.30 | X-H torsion
[ 10763 10752 10751 10750 ] final -162.56 input  -60.55 | X-H torsion
[ 11005 11000 10999 10996 ] final   42.78 input  -57.11 | X-H torsion

> <Gold.Protein.ActiveResidues>
 VAL166  LYS551  ARG553  GLY616  TRP617  ASP618  TYR619  PRO620  LYS621  CYS622 
 ASP623  PHE694  ASN695  SER759  ASP760  ASP761  ALA762  ILE779  LEU786  VAL792 
 PHE793  MET794  SER795  GLU796  ALA797  LYS798  CYS799  TRP800  GLU811  SER814 

> <Gold.Protein.RotatedAtoms>
  151.1335  133.5020  159.2598 H   0  0  0  0  0  0  0  0  0  0  0  0  # atno 6907 bound_to 6896
  151.1732  135.0327  159.8770 H   0  0  0  0  0  0  0  0  0  0  0  0  # atno 6908 bound_to 6896
  152.5460  134.1196  159.8446 H   0  0  0  0  0  0  0  0  0  0  0  0  # atno 6909 bound_to 6896
  145.2175  140.9121  143.3279 H   0  0  0  0  0  0  0  0  0  0  0  0  # atno 7974 bound_to 7965
  154.4438  140.1022  156.6401 H   0  0  0  0  0  0  0  0  0  0  0  0  # atno 8008 bound_to 7997
  155.5510  140.3485  155.4450 H   0  0  0  0  0  0  0  0  0  0  0  0  # atno 8009 bound_to 7997
  156.0528  140.1308  157.0019 H   0  0  0  0  0  0  0  0  0  0  0  0  # atno 8010 bound_to 7997
  140.3546  144.2306  150.6143 H   0  0  0  0  0  0  0  0  0  0  0  0  # atno 10167 bound_to 10162
  157.5158  131.1097  150.9226 H   0  0  0  0  0  0  0  0  0  0  0  0  # atno 10718 bound_to 10713
  154.7203  135.3024  154.9058 H   0  0  0  0  0  0  0  0  0  0  0  0  # atno 10763 bound_to 10752
  153.9932  135.6716  153.4759 H   0  0  0  0  0  0  0  0  0  0  0  0  # atno 10764 bound_to 10752
  153.0828  135.5000  154.8454 H   0  0  0  0  0  0  0  0  0  0  0  0  # atno 10765 bound_to 10752
  140.1706  134.4226  155.8259 H   0  0  0  0  0  0  0  0  0  0  0  0  # atno 11005 bound_to 11000
  144.9797  139.3796  143.6268 LP  0  0  0  0  0  0  0  0  0  0  0  0  # atno 17320 bound_to 7965
  146.3384  139.8932  142.8806 LP  0  0  0  0  0  0  0  0  0  0  0  0  # atno 17321 bound_to 7965
  140.5186  143.2271  151.8424 LP  0  0  0  0  0  0  0  0  0  0  0  0  # atno 17342 bound_to 10162
  139.4822  144.4864  151.9241 LP  0  0  0  0  0  0  0  0  0  0  0  0  # atno 17343 bound_to 10162
  156.9852  130.5542  149.5299 LP  0  0  0  0  0  0  0  0  0  0  0  0  # atno 17370 bound_to 10713
  156.0320  130.5410  150.8557 LP  0  0  0  0  0  0  0  0  0  0  0  0  # atno 17371 bound_to 10713
  141.2217  133.6954  156.7757 LP  0  0  0  0  0  0  0  0  0  0  0  0  # atno 17394 bound_to 11000
  140.2381  134.8634  157.3546 LP  0  0  0  0  0  0  0  0  0  0  0  0  # atno 17395 bound_to 11000

$$$$
