AV-unprocessed.smi:1915|AV-procd|sdf|7763|dock4
  -GOLD-   22720 9503D 1   1.00000     0.00000
 Structure written by MMmdl.
 45 46  0  0  0  0  0  0  0  0  2 V2000
  152.9931  142.6723  160.1806 C   0  0  0  0  0  0  0  0  0  0  0  0
  152.5265  142.6605  158.7146 C   0  0  0  0  0  0  0  0  0  0  0  0
  152.4486  144.0935  158.1669 C   0  0  0  0  0  0  0  0  0  0  0  0
  151.1816  141.9288  158.5048 C   0  0  0  0  0  0  0  0  0  0  0  0
  151.0631  141.3112  157.1838 N   0  0  0  0  0  0  0  0  0  0  0  0
  150.1278  141.8405  156.2040 C   0  0  0  0  0  0  0  0  0  0  0  0
  150.0740  140.7960  155.0679 C   0  0  2  0  0  0  0  0  0  0  0  0
  148.7325  140.0489  155.0150 C   0  0  0  0  0  0  0  0  0  0  0  0
  148.2779  139.5188  156.0296 O   0  0  0  0  0  0  0  0  0  0  0  0
  148.1204  139.9980  153.8212 N   0  0  0  0  0  0  0  0  0  0  0  0
  146.8472  139.3343  153.5486 C   0  0  0  0  0  0  0  0  0  0  0  0
  146.8533  137.8371  153.9197 C   0  0  0  0  0  0  0  0  0  0  0  0
  145.7811  137.0215  153.2172 C   0  0  0  0  0  0  0  0  0  0  0  0
  144.4161  137.1322  153.5591 C   0  0  0  0  0  0  0  0  0  0  0  0
  143.4717  136.3198  152.8979 C   0  0  0  0  0  0  0  0  0  0  0  0
  143.9108  135.4154  151.9090 C   0  0  0  0  0  0  0  0  0  0  0  0
  145.2855  135.3465  151.6056 C   0  0  0  0  0  0  0  0  0  0  0  0
  146.1596  136.1405  152.2620 N   0  3  0  0  0  0  0  0  0  0  0  0
  151.2377  139.8286  155.3585 C   0  0  0  0  0  0  0  0  0  0  0  0
  151.6910  140.2091  156.7574 C   0  0  0  0  0  0  0  0  0  0  0  0
  152.5180  139.5525  157.3882 O   0  0  0  0  0  0  0  0  0  0  0  0
  152.2448  143.1270  160.8303 H   0  0  0  0  0  0  0  0  0  0  0  0
  153.9181  143.2382  160.2931 H   0  0  0  0  0  0  0  0  0  0  0  0
  153.1898  141.6655  160.5481 H   0  0  0  0  0  0  0  0  0  0  0  0
  153.2862  142.1361  158.1334 H   0  0  0  0  0  0  0  0  0  0  0  0
  151.7068  144.6843  158.7056 H   0  0  0  0  0  0  0  0  0  0  0  0
  152.1745  144.0976  157.1115 H   0  0  0  0  0  0  0  0  0  0  0  0
  153.4086  144.6026  158.2568 H   0  0  0  0  0  0  0  0  0  0  0  0
  151.0436  141.1734  159.2803 H   0  0  0  0  0  0  0  0  0  0  0  0
  150.3582  142.6331  158.6299 H   0  0  0  0  0  0  0  0  0  0  0  0
  149.1532  142.0267  156.6590 H   0  0  0  0  0  0  0  0  0  0  0  0
  150.5013  142.7954  155.8318 H   0  0  0  0  0  0  0  0  0  0  0  0
  150.2404  141.2947  154.1115 H   0  0  0  0  0  0  0  0  0  0  0  0
  148.5643  140.4651  153.0434 H   0  0  0  0  0  0  0  0  0  0  0  0
  146.0324  139.8452  154.0645 H   0  0  0  0  0  0  0  0  0  0  0  0
  146.6402  139.4396  152.4834 H   0  0  0  0  0  0  0  0  0  0  0  0
  147.8268  137.4083  153.6794 H   0  0  0  0  0  0  0  0  0  0  0  0
  146.7348  137.7257  154.9985 H   0  0  0  0  0  0  0  0  0  0  0  0
  144.0969  137.8224  154.3264 H   0  0  0  0  0  0  0  0  0  0  0  0
  142.4234  136.3869  153.1498 H   0  0  0  0  0  0  0  0  0  0  0  0
  143.2037  134.7822  151.3933 H   0  0  0  0  0  0  0  0  0  0  0  0
  145.7100  134.6815  150.8676 H   0  0  0  0  0  0  0  0  0  0  0  0
  150.9543  138.7757  155.3237 H   0  0  0  0  0  0  0  0  0  0  0  0
  152.0595  139.9799  154.6578 H   0  0  0  0  0  0  0  0  0  0  0  0
  147.1508  136.0675  152.0323 H   0  0  0  0  0  0  0  0  0  0  0  0
  1  2  1  0  0  0  0
  1 22  1  0  0  0  0
  1 23  1  0  0  0  0
  1 24  1  0  0  0  0
  2  3  1  0  0  0  0
  2  4  1  0  0  0  0
  2 25  1  0  0  0  0
  3 26  1  0  0  0  0
  3 27  1  0  0  0  0
  3 28  1  0  0  0  0
  4  5  1  0  0  0  0
  4 29  1  0  0  0  0
  4 30  1  0  0  0  0
  5 20  1  0  0  0  0
  5  6  1  0  0  0  0
  6  7  1  0  0  0  0
  6 31  1  0  0  0  0
  6 32  1  0  0  0  0
  7  8  1  0  0  0  0
  7 19  1  0  0  0  0
  7 33  1  0  0  0  0
  8  9  2  0  0  0  0
  8 10  1  0  0  0  0
 10 11  1  0  0  0  0
 10 34  1  0  0  0  0
 11 12  1  0  0  0  0
 11 35  1  0  0  0  0
 11 36  1  0  0  0  0
 12 13  1  0  0  0  0
 12 37  1  0  0  0  0
 12 38  1  0  0  0  0
 13 18  1  0  0  0  0
 13 14  2  0  0  0  0
 14 15  1  0  0  0  0
 14 39  1  0  0  0  0
 15 16  2  0  0  0  0
 15 40  1  0  0  0  0
 16 17  1  0  0  0  0
 16 41  1  0  0  0  0
 17 18  2  0  0  0  0
 17 42  1  0  0  0  0
 18 45  1  0  0  0  0
 19 20  1  0  0  0  0
 19 43  1  0  0  0  0
 19 44  1  0  0  0  0
 20 21  2  0  0  0  0
M  CHG  1  18   1
M  END
> <s_m_source_file>
AV-unprocessed.smi

> <i_m_source_file_index>
1915

> <i_lp_mmshare_version>
43012

> <i_f3d_flags>
0

> <s_epik_input>
W0NIM11bQ0hdKFtDSDNdKVtDSDJdTjFbQ0gyXVtDQEhdKFtDSDJdQzE9TylDKD1PKVtOSF1bQ0gyXVtDSDJdYzJbY0hdW2NIXVtjSF1bY0hdbjI=

> <s_epik_cmdline>
J2VwaWtfcHl0aG9uJywgJy1waCcsICc3LjAnLCAnLXRuJywgJzgnLCAnLW1hJywgJzIwMCcsICctbWV0YWxfYmluZGluZycsICctaW1hZScsICc8aW5maWxlLm1hZT4nLCAnLW9tYWUnLCAnPG91dGZpbGUubWFlPic=

> <r_epik_Ionization_Penalty>
1.88249

> <r_epik_Ionization_Penalty_Charging>
1.88249

> <r_epik_Ionization_Penalty_Neutral>
3.64574e-08

> <r_epik_State_Penalty>
2.00238

> <r_epik_Charging_Adjusted_Penalty>
3.88487

> <i_epik_Tot_Q>
1

> <i_epik_Tot_abs_Q>
1

> <r_epik_Metal_State_Penalty>
2.02676

> <b_epik_Metal_Only>
0

> <s_lp_Force_Field>
OPLS_2005

> <r_lp_Energy>
20.6112

> <b_lp_Chiralities_Consistent>
1

> <s_lp_Variant>
AV-unprocessed.smi:1915-4

> <Gold.Version>
5.8.1

> <Gold.Id.Protein>
6NUR|6NUR_protein|mol2

> <Gold.PLP.Fitness>
49.7782

> <Gold.PLP.PLP>
-40.2616

> <Gold.PLP.part.hbond>
-3.0000

> <Gold.PLP.part.metal>
0.0000

> <Gold.PLP.part.buried>
0.6509

> <Gold.PLP.part.nonpolar>
-37.7843

> <Gold.PLP.part.repulsive>
0.1734

> <Gold.PLP.ligand.clash>
0.0000

> <Gold.PLP.ligand.torsion>
0.7879

> <Gold.PLP.Chemscore.Hbond>
3.6473

> <Gold.PLP.Chemscore.CHOScore>
0.0000

> <Gold.PLP.Chemscore.Metal>
0.0000

> <Gold.Chemscore.Hbonds>
donor molecule, donor type, donor heavy atom, donor atom, acceptor molecule, acceptor atom, score
      L1  H    10    34       P1  7957  0.50
      L1  H    18    45       P1  7948  2.00
      P1  H  7997  8008       L1    21  0.91

> <Gold.PLP.Chemscore.Internal.Correction>
0.1506

> <Gold.Rescore>
     Score         DG    S(hbond)    S(metal)    S(lipo)     H(rot)  DE(clash)    DE(int)     intcor
     18.59     -21.40       2.76        0.00      98.01       1.86       2.18       0.64       ----

> <Gold.Chemscore.Fitness>
18.5895

> <Gold.Chemscore.DG>
-21.4043

> <Gold.Chemscore.ZeroCoef>
-5.4800

> <Gold.Chemscore.Hbond>
2.7630

> <Gold.Chemscore.Metal>
0.0000

> <Gold.Chemscore.Lipo>
98.0091

> <Gold.Chemscore.Internal_Hbond>
0.0000

> <Gold.Chemscore.DEClash>
2.1763

> <Gold.Chemscore.DEInternal>
0.6385

> <Gold.Chemscore.Rot>
1.8638

> <Gold.Chemscore.Internal.Correction>
   9.000000E+99

> <Gold.Chemscore.Hbonds>
donor molecule, donor type, donor heavy atom, donor atom, acceptor molecule, acceptor atom, score
      L1  H    10    34       P1  7957  0.50
      L1  H    18    45       P1  7948  1.00
      P1  H  7997  8008       L1    21  0.65

> <Gold.Chemscore.Hbond.Weighted>
-9.2286

> <Gold.Chemscore.Metal.Weighted>
-0.0000

> <Gold.Chemscore.Lipo.Weighted>
-11.4671

> <Gold.Chemscore.Internal_Hbond.Weighted>
0.0000

> <Gold.Chemscore.DEClash.Weighted>
2.1763

> <Gold.Chemscore.DEInternal.Weighted>
0.6385

> <Gold.Chemscore.Rot.Weighted>
4.7713

> <Gold.Chemscore.Internal.Correction.Weighted>
   9.000000E+99

> <Gold.Protein.RotatedTorsions>
[ 6907 6896 6895 6894 ] final  107.56 input  -60.11 | X-H torsion
[ 7974 7965 7964 7962 ] final   76.87 input  175.53 | X-H torsion
[ 8008 7997 7996 7995 ] final  -68.85 input   59.86 | X-H torsion
[ 10167 10162 10161 10158 ] final -119.32 input  -65.29 | X-H torsion
[ 10718 10713 10712 10709 ] final -116.31 input   66.30 | X-H torsion
[ 10763 10752 10751 10750 ] final -160.88 input  -60.55 | X-H torsion
[ 11005 11000 10999 10996 ] final -124.09 input  -57.11 | X-H torsion

> <Gold.Protein.ActiveResidues>
 VAL166  LYS551  ARG553  GLY616  TRP617  ASP618  TYR619  PRO620  LYS621  CYS622 
 ASP623  PHE694  ASN695  SER759  ASP760  ASP761  ALA762  ILE779  LEU786  VAL792 
 PHE793  MET794  SER795  GLU796  ALA797  LYS798  CYS799  TRP800  GLU811  SER814 

> <Gold.Protein.RotatedAtoms>
  152.5149  133.9217  159.7537 H   0  0  0  0  0  0  0  0  0  0  0  0  # atno 6907 bound_to 6896
  150.9587  133.6461  159.2765 H   0  0  0  0  0  0  0  0  0  0  0  0  # atno 6908 bound_to 6896
  151.3713  135.0928  159.9519 H   0  0  0  0  0  0  0  0  0  0  0  0  # atno 6909 bound_to 6896
  145.6973  139.2571  143.1725 H   0  0  0  0  0  0  0  0  0  0  0  0  # atno 7974 bound_to 7965
  154.4897  140.0865  156.7567 H   0  0  0  0  0  0  0  0  0  0  0  0  # atno 8008 bound_to 7997
  155.4261  140.3448  155.4257 H   0  0  0  0  0  0  0  0  0  0  0  0  # atno 8009 bound_to 7997
  156.1312  140.1502  156.9050 H   0  0  0  0  0  0  0  0  0  0  0  0  # atno 8010 bound_to 7997
  140.0479  143.5088  152.2097 H   0  0  0  0  0  0  0  0  0  0  0  0  # atno 10167 bound_to 10162
  156.0955  130.6128  150.9020 H   0  0  0  0  0  0  0  0  0  0  0  0  # atno 10718 bound_to 10713
  154.7352  135.3055  154.8823 H   0  0  0  0  0  0  0  0  0  0  0  0  # atno 10763 bound_to 10752
  153.9654  135.6748  153.4750 H   0  0  0  0  0  0  0  0  0  0  0  0  # atno 10764 bound_to 10752
  153.0956  135.4937  154.8694 H   0  0  0  0  0  0  0  0  0  0  0  0  # atno 10765 bound_to 10752
  140.9868  134.0595  157.3701 H   0  0  0  0  0  0  0  0  0  0  0  0  # atno 11005 bound_to 11000
  146.0829  140.7744  142.9633 LP  0  0  0  0  0  0  0  0  0  0  0  0  # atno 17320 bound_to 7965
  144.6979  140.3516  143.7180 LP  0  0  0  0  0  0  0  0  0  0  0  0  # atno 17321 bound_to 7965
  139.5971  144.7571  151.3259 LP  0  0  0  0  0  0  0  0  0  0  0  0  # atno 17342 bound_to 10162
  140.7230  143.7083  150.7790 LP  0  0  0  0  0  0  0  0  0  0  0  0  # atno 17343 bound_to 10162
  157.6115  131.0936  150.8787 LP  0  0  0  0  0  0  0  0  0  0  0  0  # atno 17370 bound_to 10713
  156.8926  130.5218  149.5285 LP  0  0  0  0  0  0  0  0  0  0  0  0  # atno 17371 bound_to 10713
  139.8974  135.0150  156.7099 LP  0  0  0  0  0  0  0  0  0  0  0  0  # atno 17394 bound_to 11000
  140.7101  133.9230  155.8079 LP  0  0  0  0  0  0  0  0  0  0  0  0  # atno 17395 bound_to 11000

$$$$
