AV-unprocessed.smi:358|AV-procd|sdf|2417|dock1
  -GOLD-   2262022353D 1   1.00000     0.00000
 Structure written by MMmdl.
 37 39  0  0  0  0  0  0  0  0  1 V2000
  154.4811  136.7359  159.8956 N   0  0  0  0  0  0  0  0  0  0  0  0
  153.3812  137.4382  159.6145 C   0  0  0  0  0  0  0  0  0  0  0  0
  152.2632  137.0709  159.9716 O   0  0  0  0  0  0  0  0  0  0  0  0
  153.5742  138.7331  158.8180 C   0  0  0  0  0  0  0  0  0  0  0  0
  152.3324  139.4851  158.6765 N   0  0  0  0  0  0  0  0  0  0  0  0
  151.1432  139.0852  158.1805 C   0  0  0  0  0  0  0  0  0  0  0  0
  150.8606  137.4617  157.5644 S   0  0  0  0  0  0  0  0  0  0  0  0
  151.5770  137.7174  155.9151 C   0  0  0  0  0  0  0  0  0  0  0  0
  151.3950  139.1343  155.3684 C   0  0  0  0  0  0  0  0  0  0  0  0
  152.3670  139.8667  155.1799 O   0  0  0  0  0  0  0  0  0  0  0  0
  150.1322  139.5013  155.1045 N   0  0  0  0  0  0  0  0  0  0  0  0
  149.7265  140.7662  154.5832 C   0  0  0  0  0  0  0  0  0  0  0  0
  148.7188  141.5636  155.3828 C   0  0  0  0  0  0  0  0  0  0  0  0
  148.2990  140.9023  154.0990 C   0  0  0  0  0  0  0  0  0  0  0  0
  150.2001  140.0295  158.2151 N   0  0  0  0  0  0  0  0  0  0  0  0
  150.8054  141.1340  158.7724 N   0  0  0  0  0  0  0  0  0  0  0  0
  152.0662  140.7650  159.0099 C   0  0  0  0  0  0  0  0  0  0  0  0
  153.0819  141.6607  159.6452 C   0  0  0  0  0  0  0  0  0  0  0  0
  152.9048  142.1656  161.0606 C   0  0  0  0  0  0  0  0  0  0  0  0
  152.7845  143.1216  159.9035 C   0  0  0  0  0  0  0  0  0  0  0  0
  154.4044  135.8763  160.4202 H   0  0  0  0  0  0  0  0  0  0  0  0
  155.3844  137.0643  159.5865 H   0  0  0  0  0  0  0  0  0  0  0  0
  154.3183  139.3546  159.3164 H   0  0  0  0  0  0  0  0  0  0  0  0
  153.9686  138.5130  157.8253 H   0  0  0  0  0  0  0  0  0  0  0  0
  152.6438  137.4964  155.9572 H   0  0  0  0  0  0  0  0  0  0  0  0
  151.1269  136.9999  155.2277 H   0  0  0  0  0  0  0  0  0  0  0  0
  149.3995  138.8317  155.2891 H   0  0  0  0  0  0  0  0  0  0  0  0
  150.4731  141.3484  154.0448 H   0  0  0  0  0  0  0  0  0  0  0  0
  148.3505  141.1337  156.3124 H   0  0  0  0  0  0  0  0  0  0  0  0
  148.8204  142.6470  155.3798 H   0  0  0  0  0  0  0  0  0  0  0  0
  148.1213  141.5431  153.2378 H   0  0  0  0  0  0  0  0  0  0  0  0
  147.6516  140.0303  154.1712 H   0  0  0  0  0  0  0  0  0  0  0  0
  154.0861  141.3933  159.3226 H   0  0  0  0  0  0  0  0  0  0  0  0
  151.9891  141.9011  161.5859 H   0  0  0  0  0  0  0  0  0  0  0  0
  153.7948  142.2379  161.6822 H   0  0  0  0  0  0  0  0  0  0  0  0
  153.5934  143.8328  159.7505 H   0  0  0  0  0  0  0  0  0  0  0  0
  151.7884  143.4891  159.6652 H   0  0  0  0  0  0  0  0  0  0  0  0
  1  2  1  0  0  0  0
  1 21  1  0  0  0  0
  1 22  1  0  0  0  0
  2  3  2  0  0  0  0
  2  4  1  0  0  0  0
  4  5  1  0  0  0  0
  4 23  1  0  0  0  0
  4 24  1  0  0  0  0
  5 17  1  0  0  0  0
  5  6  1  0  0  0  0
  6  7  1  0  0  0  0
  6 15  2  0  0  0  0
  7  8  1  0  0  0  0
  8  9  1  0  0  0  0
  8 25  1  0  0  0  0
  8 26  1  0  0  0  0
  9 10  2  0  0  0  0
  9 11  1  0  0  0  0
 11 12  1  0  0  0  0
 11 27  1  0  0  0  0
 12 14  1  0  0  0  0
 12 13  1  0  0  0  0
 12 28  1  0  0  0  0
 13 14  1  0  0  0  0
 13 29  1  0  0  0  0
 13 30  1  0  0  0  0
 14 31  1  0  0  0  0
 14 32  1  0  0  0  0
 15 16  1  0  0  0  0
 16 17  2  0  0  0  0
 17 18  1  0  0  0  0
 18 20  1  0  0  0  0
 18 19  1  0  0  0  0
 18 33  1  0  0  0  0
 19 20  1  0  0  0  0
 19 34  1  0  0  0  0
 19 35  1  0  0  0  0
 20 36  1  0  0  0  0
 20 37  1  0  0  0  0
M  END
> <s_m_source_file>
AV-unprocessed.smi

> <i_m_source_file_index>
358

> <i_lp_mmshare_version>
43012

> <i_f3d_flags>
0

> <s_epik_input>
W0NIMl0xW0NIMl1bQ0hdMWMybm5jKG4yW0NIMl1DKD1PKVtOSDJdKVNbQ0gyXUMoPU8pW05IXVtDSF0zW0NIMl1bQ0gyXTM=

> <s_epik_cmdline>
J2VwaWtfcHl0aG9uJywgJy1waCcsICc3LjAnLCAnLXRuJywgJzgnLCAnLW1hJywgJzIwMCcsICctbWV0YWxfYmluZGluZycsICctaW1hZScsICc8aW5maWxlLm1hZT4nLCAnLW9tYWUnLCAnPG91dGZpbGUubWFlPic=

> <r_lp_tautomer_probability>
1

> <r_epik_Ionization_Penalty>
5.83215e-07

> <r_epik_Ionization_Penalty_Charging>
0

> <r_epik_Ionization_Penalty_Neutral>
5.83215e-07

> <r_epik_State_Penalty>
-0

> <r_epik_Charging_Adjusted_Penalty>
0

> <i_epik_Tot_Q>
0

> <i_epik_Tot_abs_Q>
0

> <r_epik_Metal_State_Penalty>
-0

> <b_epik_Metal_Only>
0

> <s_lp_Force_Field>
OPLS_2005

> <r_lp_Energy>
18.9456

> <b_lp_Chiralities_Consistent>
1

> <s_lp_Variant>
AV-unprocessed.smi:358-1

> <Gold.Version>
5.8.1

> <Gold.Id.Protein>
6NUR|6NUR_protein|mol2

> <Gold.PLP.Fitness>
39.4752

> <Gold.PLP.PLP>
-33.4498

> <Gold.PLP.part.hbond>
-2.7946

> <Gold.PLP.part.metal>
0.0000

> <Gold.PLP.part.buried>
-2.7509

> <Gold.PLP.part.nonpolar>
-27.8186

> <Gold.PLP.part.repulsive>
0.1328

> <Gold.PLP.ligand.clash>
0.0000

> <Gold.PLP.ligand.torsion>
0.6839

> <Gold.PLP.Chemscore.Hbond>
2.2985

> <Gold.PLP.Chemscore.CHOScore>
0.0000

> <Gold.PLP.Chemscore.Metal>
0.0000

> <Gold.Chemscore.Hbonds>
donor molecule, donor type, donor heavy atom, donor atom, acceptor molecule, acceptor atom, score
      P1  H  6896  6908       L1     3  1.00
      P1  H  7989  7998       L1    10  0.59
      P1  H  7997  8008       L1    10  0.54

> <Gold.PLP.Chemscore.Internal.Correction>
0.4976

> <Gold.Rescore>
     Score         DG    S(hbond)    S(metal)    S(lipo)     H(rot)  DE(clash)    DE(int)     intcor
      8.73     -11.16       1.94        0.00      65.38       3.30       0.14       2.30       ----

> <Gold.Chemscore.Fitness>
8.7288

> <Gold.Chemscore.DG>
-11.1638

> <Gold.Chemscore.ZeroCoef>
-5.4800

> <Gold.Chemscore.Hbond>
1.9397

> <Gold.Chemscore.Metal>
0.0000

> <Gold.Chemscore.Lipo>
65.3764

> <Gold.Chemscore.Internal_Hbond>
0.0000

> <Gold.Chemscore.DEClash>
0.1372

> <Gold.Chemscore.DEInternal>
2.2978

> <Gold.Chemscore.Rot>
3.2984

> <Gold.Chemscore.Internal.Correction>
   9.000000E+99

> <Gold.Chemscore.Hbonds>
donor molecule, donor type, donor heavy atom, donor atom, acceptor molecule, acceptor atom, score
      P1  H  6896  6908       L1     3  0.94
      P1  H  7989  7998       L1    10  0.13
      P1  H  7997  8008       L1    10  0.54

> <Gold.Chemscore.Hbond.Weighted>
-6.4786

> <Gold.Chemscore.Metal.Weighted>
-0.0000

> <Gold.Chemscore.Lipo.Weighted>
-7.6490

> <Gold.Chemscore.Internal_Hbond.Weighted>
0.0000

> <Gold.Chemscore.DEClash.Weighted>
0.1372

> <Gold.Chemscore.DEInternal.Weighted>
2.2978

> <Gold.Chemscore.Rot.Weighted>
8.4438

> <Gold.Chemscore.Internal.Correction.Weighted>
   9.000000E+99

> <Gold.Protein.RotatedTorsions>
[ 6907 6896 6895 6894 ] final -102.80 input  -60.11 | X-H torsion
[ 7974 7965 7964 7962 ] final   49.85 input  175.53 | X-H torsion
[ 8008 7997 7996 7995 ] final  -20.78 input   59.86 | X-H torsion
[ 10167 10162 10161 10158 ] final   95.96 input  -65.29 | X-H torsion
[ 10718 10713 10712 10709 ] final   97.53 input   66.30 | X-H torsion
[ 10763 10752 10751 10750 ] final  -33.77 input  -60.55 | X-H torsion
[ 11005 11000 10999 10996 ] final   90.17 input  -57.11 | X-H torsion

> <Gold.Protein.ActiveResidues>
 VAL166  LYS551  ARG553  GLY616  TRP617  ASP618  TYR619  PRO620  LYS621  CYS622 
 ASP623  PHE694  ASN695  SER759  ASP760  ASP761  ALA762  ILE779  LEU786  VAL792 
 PHE793  MET794  SER795  GLU796  ALA797  LYS798  CYS799  TRP800  GLU811  SER814 

> <Gold.Protein.RotatedAtoms>
  150.7212  134.0526  159.3803 H   0  0  0  0  0  0  0  0  0  0  0  0  # atno 6907 bound_to 6896
  151.8503  135.0558  160.0467 H   0  0  0  0  0  0  0  0  0  0  0  0  # atno 6908 bound_to 6896
  152.2795  133.5421  159.5525 H   0  0  0  0  0  0  0  0  0  0  0  0  # atno 6909 bound_to 6896
  146.0069  139.4500  142.9980 H   0  0  0  0  0  0  0  0  0  0  0  0  # atno 7974 bound_to 7965
  154.4748  140.2052  155.9906 H   0  0  0  0  0  0  0  0  0  0  0  0  # atno 8008 bound_to 7997
  156.1070  140.3235  155.7990 H   0  0  0  0  0  0  0  0  0  0  0  0  # atno 8009 bound_to 7997
  155.4700  140.0530  157.2971 H   0  0  0  0  0  0  0  0  0  0  0  0  # atno 8010 bound_to 7997
  139.7940  144.6841  150.9854 H   0  0  0  0  0  0  0  0  0  0  0  0  # atno 10167 bound_to 10162
  157.6911  131.0612  150.4658 H   0  0  0  0  0  0  0  0  0  0  0  0  # atno 10718 bound_to 10713
  153.8357  135.6862  153.4809 H   0  0  0  0  0  0  0  0  0  0  0  0  # atno 10763 bound_to 10752
  153.1484  135.4628  154.9598 H   0  0  0  0  0  0  0  0  0  0  0  0  # atno 10764 bound_to 10752
  154.7867  135.3287  154.7816 H   0  0  0  0  0  0  0  0  0  0  0  0  # atno 10765 bound_to 10752
  139.8861  134.8597  156.3246 H   0  0  0  0  0  0  0  0  0  0  0  0  # atno 11005 bound_to 11000
  145.7402  141.0011  143.1305 LP  0  0  0  0  0  0  0  0  0  0  0  0  # atno 17320 bound_to 7965
  144.6939  139.9089  143.7462 LP  0  0  0  0  0  0  0  0  0  0  0  0  # atno 17321 bound_to 7965
  140.7820  143.4351  151.0635 LP  0  0  0  0  0  0  0  0  0  0  0  0  # atno 17342 bound_to 10162
  139.8026  143.8062  152.3164 LP  0  0  0  0  0  0  0  0  0  0  0  0  # atno 17343 bound_to 10162
  156.4999  130.4115  149.6359 LP  0  0  0  0  0  0  0  0  0  0  0  0  # atno 17370 bound_to 10713
  156.3338  130.7345  151.2279 LP  0  0  0  0  0  0  0  0  0  0  0  0  # atno 17371 bound_to 10713
  140.9764  133.7295  156.0608 LP  0  0  0  0  0  0  0  0  0  0  0  0  # atno 17394 bound_to 11000
  140.7806  134.3730  157.5488 LP  0  0  0  0  0  0  0  0  0  0  0  0  # atno 17395 bound_to 11000

$$$$
