AV-unprocessed.smi:2032|AV-procd|sdf|8257|dock4
  -GOLD-   2272010533D 1   1.00000     0.00000
 Structure written by MMmdl.
 42 43  0  0  0  0  0  0  0  0  3 V2000
  147.0904  131.7494  152.8410 C   0  0  0  0  0  0  0  0  0  0  0  0
  147.0782  133.2669  152.6249 C   0  0  2  0  0  0  0  0  0  0  0  0
  147.0155  134.0412  153.9542 C   0  0  0  0  0  0  0  0  0  0  0  0
  146.9278  135.5120  153.7323 N   0  3  2  0  0  0  0  0  0  0  0  0
  146.8866  136.3061  155.0065 C   0  0  1  0  0  0  0  0  0  0  0  0
  145.5897  136.0283  155.8072 C   0  0  0  0  0  0  0  0  0  0  0  0
  148.1302  136.0544  155.8996 C   0  0  0  0  0  0  0  0  0  0  0  0
  148.0146  136.6997  157.2022 N   0  0  0  0  0  0  0  0  0  0  0  0
  148.5556  136.2467  158.3401 C   0  0  0  0  0  0  0  0  0  0  0  0
  149.2136  135.2039  158.3340 O   0  0  0  0  0  0  0  0  0  0  0  0
  148.3012  137.0320  159.4106 N   0  5  0  0  0  0  0  0  0  0  0  0
  147.9298  136.4795  160.5769 C   0  0  0  0  0  0  0  0  0  0  0  0
  147.7258  137.1944  161.6892 N   0  0  0  0  0  0  0  0  0  0  0  0
  147.3546  136.4173  162.7881 C   0  0  0  0  0  0  0  0  0  0  0  0
  147.2826  135.0786  162.5080 C   0  0  0  0  0  0  0  0  0  0  0  0
  147.6815  134.7518  160.8457 S   0  0  0  0  0  0  0  0  0  0  0  0
  145.8068  135.8075  152.7958 C   0  0  0  0  0  0  0  0  0  0  0  0
  145.9029  134.9696  151.5068 C   0  0  2  0  0  0  0  0  0  0  0  0
  144.7053  135.1999  150.5779 C   0  0  0  0  0  0  0  0  0  0  0  0
  145.9377  133.5910  151.8442 O   0  0  0  0  0  0  0  0  0  0  0  0
  147.9558  131.4425  153.4289 H   0  0  0  0  0  0  0  0  0  0  0  0
  147.1331  131.2206  151.8886 H   0  0  0  0  0  0  0  0  0  0  0  0
  146.1942  131.4172  153.3657 H   0  0  0  0  0  0  0  0  0  0  0  0
  147.9822  133.5442  152.0793 H   0  0  0  0  0  0  0  0  0  0  0  0
  146.1568  133.7123  154.5420 H   0  0  0  0  0  0  0  0  0  0  0  0
  147.9104  133.7850  154.5176 H   0  0  0  0  0  0  0  0  0  0  0  0
  146.8885  137.3627  154.7331 H   0  0  0  0  0  0  0  0  0  0  0  0
  145.5819  136.5357  156.7714 H   0  0  0  0  0  0  0  0  0  0  0  0
  145.4662  134.9623  156.0008 H   0  0  0  0  0  0  0  0  0  0  0  0
  144.6992  136.3872  155.2935 H   0  0  0  0  0  0  0  0  0  0  0  0
  148.2849  134.9822  156.0328 H   0  0  0  0  0  0  0  0  0  0  0  0
  149.0342  136.4634  155.4502 H   0  0  0  0  0  0  0  0  0  0  0  0
  147.4833  137.5567  157.2490 H   0  0  0  0  0  0  0  0  0  0  0  0
  147.1626  136.9015  163.7341 H   0  0  0  0  0  0  0  0  0  0  0  0
  147.0227  134.2690  163.1730 H   0  0  0  0  0  0  0  0  0  0  0  0
  144.8560  135.6226  153.2985 H   0  0  0  0  0  0  0  0  0  0  0  0
  145.8188  136.8527  152.4928 H   0  0  0  0  0  0  0  0  0  0  0  0
  146.8138  135.2322  150.9656 H   0  0  0  0  0  0  0  0  0  0  0  0
  144.6373  136.2452  150.2752 H   0  0  0  0  0  0  0  0  0  0  0  0
  143.7684  134.9314  151.0666 H   0  0  0  0  0  0  0  0  0  0  0  0
  144.7925  134.5978  149.6730 H   0  0  0  0  0  0  0  0  0  0  0  0
  147.7756  135.7829  153.2545 H   0  0  0  0  0  0  0  0  0  0  0  0
  1  2  1  0  0  0  0
  1 21  1  0  0  0  0
  1 22  1  0  0  0  0
  1 23  1  0  0  0  0
  2 20  1  0  0  0  0
  2  3  1  0  0  0  0
  2 24  1  0  0  0  0
  3  4  1  0  0  0  0
  3 25  1  0  0  0  0
  3 26  1  0  0  0  0
  4  5  1  0  0  0  0
  4 17  1  0  0  0  0
  4 42  1  0  0  0  0
  5  6  1  0  0  0  0
  5  7  1  0  0  0  0
  5 27  1  0  0  0  0
  6 28  1  0  0  0  0
  6 29  1  0  0  0  0
  6 30  1  0  0  0  0
  7  8  1  0  0  0  0
  7 31  1  0  0  0  0
  7 32  1  0  0  0  0
  8  9  1  0  0  0  0
  8 33  1  0  0  0  0
  9 10  2  0  0  0  0
  9 11  1  0  0  0  0
 11 12  1  0  0  0  0
 12 16  1  0  0  0  0
 12 13  2  0  0  0  0
 13 14  1  0  0  0  0
 14 15  2  0  0  0  0
 14 34  1  0  0  0  0
 15 16  1  0  0  0  0
 15 35  1  0  0  0  0
 17 18  1  0  0  0  0
 17 36  1  0  0  0  0
 17 37  1  0  0  0  0
 18 19  1  0  0  0  0
 18 20  1  0  0  0  0
 18 38  1  0  0  0  0
 19 39  1  0  0  0  0
 19 40  1  0  0  0  0
 19 41  1  0  0  0  0
M  CHG  1   4   1
M  CHG  1  11  -1
M  END
> <s_m_source_file>
AV-unprocessed.smi

> <i_m_source_file_index>
2032

> <i_lp_mmshare_version>
43012

> <i_f3d_flags>
0

> <s_epik_input>
W0NIM11bQ0BASF0xW0NIMl1OKFtDSDJdW0NASF0oTzEpW0NIM10pW0NASF0oW0NIM10pW0NIMl1bTkhdQyg9TylbTkhdYzJuW2NIXVtjSF1zMg==

> <s_epik_cmdline>
J2VwaWtfcHl0aG9uJywgJy1waCcsICc3LjAnLCAnLXRuJywgJzgnLCAnLW1hJywgJzIwMCcsICctbWV0YWxfYmluZGluZycsICctaW1hZScsICc8aW5maWxlLm1hZT4nLCAnLW9tYWUnLCAnPG91dGZpbGUubWFlPic=

> <r_lp_tautomer_probability>
0.999

> <r_epik_Ionization_Penalty>
6.71699

> <r_epik_Ionization_Penalty_Charging>
5.88592

> <r_epik_Ionization_Penalty_Neutral>
0.831074

> <r_epik_State_Penalty>
6.08365

> <r_epik_Charging_Adjusted_Penalty>
11.9696

> <i_epik_Tot_Q>
0

> <i_epik_Tot_abs_Q>
2

> <r_epik_Metal_State_Penalty>
2.0947

> <b_epik_Metal_Only>
1

> <s_lp_Force_Field>
OPLS_2005

> <r_lp_Energy>
10.3148

> <b_lp_Chiralities_Consistent>
1

> <s_lp_Variant>
AV-unprocessed.smi:2032-27

> <Gold.Version>
5.8.1

> <Gold.Id.Protein>
6NUR|6NUR_protein|mol2

> <Gold.PLP.Fitness>
42.9414

> <Gold.PLP.PLP>
-30.0324

> <Gold.PLP.part.hbond>
-4.0000

> <Gold.PLP.part.metal>
0.0000

> <Gold.PLP.part.buried>
-3.4898

> <Gold.PLP.part.nonpolar>
-22.3059

> <Gold.PLP.part.repulsive>
0.1254

> <Gold.PLP.ligand.clash>
0.0000

> <Gold.PLP.ligand.torsion>
0.6205

> <Gold.PLP.Chemscore.Hbond>
4.6864

> <Gold.PLP.Chemscore.CHOScore>
0.0000

> <Gold.PLP.Chemscore.Metal>
0.0000

> <Gold.Chemscore.Hbonds>
donor molecule, donor type, donor heavy atom, donor atom, acceptor molecule, acceptor atom, score
      L1  H     4    42       P1  7948  2.00
      P1  H  6896  6907       L1    10  1.00
      P1  H  6931  6943       L1    13  1.00
      P1  H  6934  6947       L1    13  0.67

> <Gold.PLP.Chemscore.Internal.Correction>
0.0909

> <Gold.Rescore>
     Score         DG    S(hbond)    S(metal)    S(lipo)     H(rot)  DE(clash)    DE(int)     intcor
     17.42     -19.06       3.27        0.00      57.29       1.58       0.01       1.63       ----

> <Gold.Chemscore.Fitness>
17.4164

> <Gold.Chemscore.DG>
-19.0625

> <Gold.Chemscore.ZeroCoef>
-5.4800

> <Gold.Chemscore.Hbond>
3.2701

> <Gold.Chemscore.Metal>
0.0000

> <Gold.Chemscore.Lipo>
57.2894

> <Gold.Chemscore.Internal_Hbond>
0.0000

> <Gold.Chemscore.DEClash>
0.0126

> <Gold.Chemscore.DEInternal>
1.6334

> <Gold.Chemscore.Rot>
1.5791

> <Gold.Chemscore.Internal.Correction>
   9.000000E+99

> <Gold.Chemscore.Hbonds>
donor molecule, donor type, donor heavy atom, donor atom, acceptor molecule, acceptor atom, score
      L1  H     4    42       P1  7948  1.00
      P1  H  6896  6907       L1    10  0.97
      P1  H  6931  6943       L1    13  0.64
      P1  H  6934  6947       L1    13  0.25

> <Gold.Chemscore.Hbond.Weighted>
-10.9221

> <Gold.Chemscore.Metal.Weighted>
-0.0000

> <Gold.Chemscore.Lipo.Weighted>
-6.7029

> <Gold.Chemscore.Internal_Hbond.Weighted>
0.0000

> <Gold.Chemscore.DEClash.Weighted>
0.0126

> <Gold.Chemscore.DEInternal.Weighted>
1.6334

> <Gold.Chemscore.Rot.Weighted>
4.0425

> <Gold.Chemscore.Internal.Correction.Weighted>
   9.000000E+99

> <Gold.Protein.RotatedTorsions>
[ 6907 6896 6895 6894 ] final  -83.98 input  -60.11 | X-H torsion
[ 7974 7965 7964 7962 ] final -165.09 input  175.53 | X-H torsion
[ 8008 7997 7996 7995 ] final  178.90 input   59.86 | X-H torsion
[ 10167 10162 10161 10158 ] final   -3.57 input  -65.29 | X-H torsion
[ 10718 10713 10712 10709 ] final -129.45 input   66.30 | X-H torsion
[ 10763 10752 10751 10750 ] final  178.06 input  -60.55 | X-H torsion
[ 11005 11000 10999 10996 ] final   86.12 input  -57.11 | X-H torsion

> <Gold.Protein.ActiveResidues>
 VAL166  LYS551  ARG553  GLY616  TRP617  ASP618  TYR619  PRO620  LYS621  CYS622 
 ASP623  PHE694  ASN695  SER759  ASP760  ASP761  ALA762  ILE779  LEU786  VAL792 
 PHE793  MET794  SER795  GLU796  ALA797  LYS798  CYS799  TRP800  GLU811  SER814 

> <Gold.Protein.RotatedAtoms>
  150.6880  134.3428  159.4875 H   0  0  0  0  0  0  0  0  0  0  0  0  # atno 6907 bound_to 6896
  152.1279  134.9154  160.0569 H   0  0  0  0  0  0  0  0  0  0  0  0  # atno 6908 bound_to 6896
  152.0335  133.3912  159.4344 H   0  0  0  0  0  0  0  0  0  0  0  0  # atno 6909 bound_to 6896
  144.7279  140.2866  143.6227 H   0  0  0  0  0  0  0  0  0  0  0  0  # atno 7974 bound_to 7965
  156.0494  140.1322  157.0067 H   0  0  0  0  0  0  0  0  0  0  0  0  # atno 8008 bound_to 7997
  154.4428  140.1014  156.6424 H   0  0  0  0  0  0  0  0  0  0  0  0  # atno 8009 bound_to 7997
  155.5546  140.3463  155.4479 H   0  0  0  0  0  0  0  0  0  0  0  0  # atno 8010 bound_to 7997
  140.6895  143.6525  150.8338 H   0  0  0  0  0  0  0  0  0  0  0  0  # atno 10167 bound_to 10162
  156.2048  130.6881  151.0582 H   0  0  0  0  0  0  0  0  0  0  0  0  # atno 10718 bound_to 10713
  154.5027  135.2784  155.1407 H   0  0  0  0  0  0  0  0  0  0  0  0  # atno 10763 bound_to 10752
  154.3034  135.6243  153.5438 H   0  0  0  0  0  0  0  0  0  0  0  0  # atno 10764 bound_to 10752
  152.9905  135.5702  154.5474 H   0  0  0  0  0  0  0  0  0  0  0  0  # atno 10765 bound_to 10752
  139.8953  134.8334  156.2677 H   0  0  0  0  0  0  0  0  0  0  0  0  # atno 11005 bound_to 11000
  145.7897  139.1922  143.2110 LP  0  0  0  0  0  0  0  0  0  0  0  0  # atno 17320 bound_to 7965
  146.0766  140.7810  142.9662 LP  0  0  0  0  0  0  0  0  0  0  0  0  # atno 17321 bound_to 7965
  140.0236  143.5517  152.2790 LP  0  0  0  0  0  0  0  0  0  0  0  0  # atno 17342 bound_to 10162
  139.6284  144.7640  151.2589 LP  0  0  0  0  0  0  0  0  0  0  0  0  # atno 17343 bound_to 10162
  157.7006  131.0777  150.6832 LP  0  0  0  0  0  0  0  0  0  0  0  0  # atno 17370 bound_to 10713
  156.6890  130.4589  149.5605 LP  0  0  0  0  0  0  0  0  0  0  0  0  # atno 17371 bound_to 10713
  141.0121  133.7089  156.1129 LP  0  0  0  0  0  0  0  0  0  0  0  0  # atno 17394 bound_to 11000
  140.7352  134.4210  157.5561 LP  0  0  0  0  0  0  0  0  0  0  0  0  # atno 17395 bound_to 11000

$$$$
