AV-unprocessed.smi:828|AV-procd|sdf|3862|dock6
  -GOLD-   22720 1313D 1   1.00000     0.00000
 Structure written by MMmdl.
 34 35  0  0  0  0  0  0  0  0  3 V2000
  151.4935  141.6345  158.2626 C   0  0  0  0  0  0  0  0  0  0  0  0
  151.1469  140.8173  157.0657 C   0  0  0  0  0  0  0  0  0  0  0  0
  150.8730  141.3605  155.8774 N   0  0  0  0  0  0  0  0  0  0  0  0
  150.5802  140.4012  154.9190 N   0  0  0  0  0  0  0  0  0  0  0  0
  150.6441  139.1487  155.3921 C   0  0  0  0  0  0  0  0  0  0  0  0
  150.3906  138.0763  154.6237 N   0  5  0  0  0  0  0  0  0  0  0  0
  150.7583  136.8446  155.0412 C   0  0  0  0  0  0  0  0  0  0  0  0
  151.5554  136.5869  155.9460 O   0  0  0  0  0  0  0  0  0  0  0  0
  150.1572  135.8501  154.3729 N   0  0  0  0  0  0  0  0  0  0  0  0
  150.3339  134.4207  154.6085 C   0  0  0  0  0  0  0  0  0  0  0  0
  149.0135  133.6447  154.4364 C   0  0  2  0  0  0  0  0  0  0  0  0
  149.1649  132.2726  153.7699 C   0  0  0  0  0  0  0  0  0  0  0  0
  147.7733  132.0084  153.2149 C   0  0  0  0  0  0  0  0  0  0  0  0
  147.2991  133.3943  152.7724 C   0  0  0  0  0  0  0  0  0  0  0  0
  148.0544  134.3825  153.5799 N   0  3  1  0  0  0  0  0  0  0  0  0
  147.1946  135.3376  154.3128 C   0  0  0  0  0  0  0  0  0  0  0  0
  151.0661  139.0639  157.1025 S   0  0  0  0  0  0  0  0  0  0  0  0
  152.4683  142.1025  158.1247 H   0  0  0  0  0  0  0  0  0  0  0  0
  151.5288  141.0073  159.1535 H   0  0  0  0  0  0  0  0  0  0  0  0
  150.7466  142.4140  158.4142 H   0  0  0  0  0  0  0  0  0  0  0  0
  149.5184  136.1147  153.6368 H   0  0  0  0  0  0  0  0  0  0  0  0
  151.0694  134.0633  153.8880 H   0  0  0  0  0  0  0  0  0  0  0  0
  150.7633  134.2351  155.5945 H   0  0  0  0  0  0  0  0  0  0  0  0
  148.5546  133.4895  155.4150 H   0  0  0  0  0  0  0  0  0  0  0  0
  149.8811  132.3240  152.9484 H   0  0  0  0  0  0  0  0  0  0  0  0
  149.4994  131.4983  154.4611 H   0  0  0  0  0  0  0  0  0  0  0  0
  147.7697  131.2790  152.4041 H   0  0  0  0  0  0  0  0  0  0  0  0
  147.1277  131.6316  154.0094 H   0  0  0  0  0  0  0  0  0  0  0  0
  147.5439  133.5592  151.7227 H   0  0  0  0  0  0  0  0  0  0  0  0
  146.2179  133.4970  152.8769 H   0  0  0  0  0  0  0  0  0  0  0  0
  146.5568  134.8213  155.0314 H   0  0  0  0  0  0  0  0  0  0  0  0
  146.5555  135.8836  153.6181 H   0  0  0  0  0  0  0  0  0  0  0  0
  147.7995  136.0663  154.8528 H   0  0  0  0  0  0  0  0  0  0  0  0
  148.6074  134.9157  152.9239 H   0  0  0  0  0  0  0  0  0  0  0  0
  1  2  1  0  0  0  0
  1 18  1  0  0  0  0
  1 19  1  0  0  0  0
  1 20  1  0  0  0  0
  2 17  1  0  0  0  0
  2  3  2  0  0  0  0
  3  4  1  0  0  0  0
  4  5  2  0  0  0  0
  5  6  1  0  0  0  0
  5 17  1  0  0  0  0
  6  7  1  0  0  0  0
  7  8  2  0  0  0  0
  7  9  1  0  0  0  0
  9 10  1  0  0  0  0
  9 21  1  0  0  0  0
 10 11  1  0  0  0  0
 10 22  1  0  0  0  0
 10 23  1  0  0  0  0
 11 15  1  0  0  0  0
 11 12  1  0  0  0  0
 11 24  1  0  0  0  0
 12 13  1  0  0  0  0
 12 25  1  0  0  0  0
 12 26  1  0  0  0  0
 13 14  1  0  0  0  0
 13 27  1  0  0  0  0
 13 28  1  0  0  0  0
 14 15  1  0  0  0  0
 14 29  1  0  0  0  0
 14 30  1  0  0  0  0
 15 16  1  0  0  0  0
 15 34  1  0  0  0  0
 16 31  1  0  0  0  0
 16 32  1  0  0  0  0
 16 33  1  0  0  0  0
M  CHG  1   6  -1
M  CHG  1  15   1
M  END
> <s_m_source_file>
AV-unprocessed.smi

> <i_m_source_file_index>
828

> <i_lp_mmshare_version>
43012

> <i_f3d_flags>
0

> <s_epik_input>
W0NIM11jMW5uYyhzMSlbTkhdQyg9TylbTkhdW0NIMl1bQ0BASF0yW0NIMl1bQ0gyXVtDSDJdTjJbQ0gzXQ==

> <s_epik_cmdline>
J2VwaWtfcHl0aG9uJywgJy1waCcsICc3LjAnLCAnLXRuJywgJzgnLCAnLW1hJywgJzIwMCcsICctbWV0YWxfYmluZGluZycsICctaW1hZScsICc8aW5maWxlLm1hZT4nLCAnLW9tYWUnLCAnPG91dGZpbGUubWFlPic=

> <r_lp_tautomer_probability>
1

> <r_epik_Ionization_Penalty>
3.94379

> <r_epik_Ionization_Penalty_Charging>
3.83377

> <r_epik_Ionization_Penalty_Neutral>
0.110023

> <r_epik_State_Penalty>
3.83036

> <r_epik_Charging_Adjusted_Penalty>
7.66413

> <i_epik_Tot_Q>
0

> <i_epik_Tot_abs_Q>
2

> <r_epik_Metal_State_Penalty>
0.575095

> <b_epik_Metal_Only>
1

> <s_lp_Force_Field>
OPLS_2005

> <r_lp_Energy>
18.3526

> <b_lp_Chiralities_Consistent>
1

> <s_lp_Variant>
AV-unprocessed.smi:828-5

> <Gold.Version>
5.8.1

> <Gold.Id.Protein>
6NUR|6NUR_protein|mol2

> <Gold.PLP.Fitness>
38.3318

> <Gold.PLP.PLP>
-24.8954

> <Gold.PLP.part.hbond>
-5.6196

> <Gold.PLP.part.metal>
0.0000

> <Gold.PLP.part.buried>
-2.8572

> <Gold.PLP.part.nonpolar>
-16.5292

> <Gold.PLP.part.repulsive>
0.4101

> <Gold.PLP.ligand.clash>
0.0000

> <Gold.PLP.ligand.torsion>
0.7930

> <Gold.PLP.Chemscore.Hbond>
5.0000

> <Gold.PLP.Chemscore.CHOScore>
0.0000

> <Gold.PLP.Chemscore.Metal>
0.0000

> <Gold.Chemscore.Hbonds>
donor molecule, donor type, donor heavy atom, donor atom, acceptor molecule, acceptor atom, score
      L1  H     9    21       P1  7948  1.00
      L1  H    15    34       P1  7948  2.00
      P1  H  7989  7998       L1     4  1.00
      P1  H 10752 10764       L1     8  0.80

> <Gold.PLP.Chemscore.Internal.Correction>
0.0224

> <Gold.Rescore>
     Score         DG    S(hbond)    S(metal)    S(lipo)     H(rot)  DE(clash)    DE(int)     intcor
     15.17     -18.49       3.33        0.00      44.99       1.31       0.14       3.18       ----

> <Gold.Chemscore.Fitness>
15.1723

> <Gold.Chemscore.DG>
-18.4914

> <Gold.Chemscore.ZeroCoef>
-5.4800

> <Gold.Chemscore.Hbond>
3.3275

> <Gold.Chemscore.Metal>
0.0000

> <Gold.Chemscore.Lipo>
44.9877

> <Gold.Chemscore.Internal_Hbond>
0.0000

> <Gold.Chemscore.DEClash>
0.1384

> <Gold.Chemscore.DEInternal>
3.1806

> <Gold.Chemscore.Rot>
1.3149

> <Gold.Chemscore.Internal.Correction>
   9.000000E+99

> <Gold.Chemscore.Hbonds>
donor molecule, donor type, donor heavy atom, donor atom, acceptor molecule, acceptor atom, score
      L1  H     9    21       P1  7948  0.48
      L1  H    15    34       P1  7948  0.39
      P1  H  7989  7998       L1     4  0.38
      P1  H 10752 10764       L1     8  0.35

> <Gold.Chemscore.Hbond.Weighted>
-11.1140

> <Gold.Chemscore.Metal.Weighted>
-0.0000

> <Gold.Chemscore.Lipo.Weighted>
-5.2636

> <Gold.Chemscore.Internal_Hbond.Weighted>
0.0000

> <Gold.Chemscore.DEClash.Weighted>
0.1384

> <Gold.Chemscore.DEInternal.Weighted>
3.1806

> <Gold.Chemscore.Rot.Weighted>
3.3662

> <Gold.Chemscore.Internal.Correction.Weighted>
   9.000000E+99

> <Gold.Protein.RotatedTorsions>
[ 6907 6896 6895 6894 ] final   95.11 input  -60.11 | X-H torsion
[ 7974 7965 7964 7962 ] final  -25.20 input  175.53 | X-H torsion
[ 8008 7997 7996 7995 ] final -138.34 input   59.86 | X-H torsion
[ 10167 10162 10161 10158 ] final   14.48 input  -65.29 | X-H torsion
[ 10718 10713 10712 10709 ] final   27.69 input   66.30 | X-H torsion
[ 10763 10752 10751 10750 ] final  -34.43 input  -60.55 | X-H torsion
[ 11005 11000 10999 10996 ] final  134.20 input  -57.11 | X-H torsion

> <Gold.Protein.ActiveResidues>
 VAL166  LYS551  ARG553  GLY616  TRP617  ASP618  TYR619  PRO620  LYS621  CYS622 
 ASP623  PHE694  ASN695  SER759  ASP760  ASP761  ALA762  ILE779  LEU786  VAL792 
 PHE793  MET794  SER795  GLU796  ALA797  LYS798  CYS799  TRP800  GLU811  SER814 

> <Gold.Protein.RotatedAtoms>
  152.5446  134.1091  159.8350 H   0  0  0  0  0  0  0  0  0  0  0  0  # atno 6907 bound_to 6896
  151.1160  133.5131  159.2611 H   0  0  0  0  0  0  0  0  0  0  0  0  # atno 6908 bound_to 6896
  151.1832  135.0379  159.8855 H   0  0  0  0  0  0  0  0  0  0  0  0  # atno 6909 bound_to 6896
  146.1506  140.4854  142.8613 H   0  0  0  0  0  0  0  0  0  0  0  0  # atno 7974 bound_to 7965
  155.4268  140.0522  157.3021 H   0  0  0  0  0  0  0  0  0  0  0  0  # atno 8008 bound_to 7997
  154.4878  140.2108  155.9575 H   0  0  0  0  0  0  0  0  0  0  0  0  # atno 8009 bound_to 7997
  156.1299  140.3173  155.8338 H   0  0  0  0  0  0  0  0  0  0  0  0  # atno 8010 bound_to 7997
  140.5933  143.8752  150.6894 H   0  0  0  0  0  0  0  0  0  0  0  0  # atno 10167 bound_to 10162
  157.2235  130.6990  149.6281 H   0  0  0  0  0  0  0  0  0  0  0  0  # atno 10718 bound_to 10713
  153.8465  135.6853  153.4797 H   0  0  0  0  0  0  0  0  0  0  0  0  # atno 10763 bound_to 10752
  153.1422  135.4652  154.9511 H   0  0  0  0  0  0  0  0  0  0  0  0  # atno 10764 bound_to 10752
  154.7821  135.3272  154.7913 H   0  0  0  0  0  0  0  0  0  0  0  0  # atno 10765 bound_to 10752
  139.9900  134.9518  156.9833 H   0  0  0  0  0  0  0  0  0  0  0  0  # atno 11005 bound_to 11000
  144.7900  140.6012  143.6548 LP  0  0  0  0  0  0  0  0  0  0  0  0  # atno 17320 bound_to 7965
  145.4831  139.1494  143.3751 LP  0  0  0  0  0  0  0  0  0  0  0  0  # atno 17321 bound_to 7965
  140.2280  143.3757  152.1589 LP  0  0  0  0  0  0  0  0  0  0  0  0  # atno 17342 bound_to 10162
  139.5241  144.7080  151.5294 LP  0  0  0  0  0  0  0  0  0  0  0  0  # atno 17343 bound_to 10162
  155.9680  130.4512  150.5726 LP  0  0  0  0  0  0  0  0  0  0  0  0  # atno 17370 bound_to 10713
  157.3551  131.0740  151.1682 LP  0  0  0  0  0  0  0  0  0  0  0  0  # atno 17371 bound_to 10713
  140.4927  134.1177  155.7235 LP  0  0  0  0  0  0  0  0  0  0  0  0  # atno 17394 bound_to 11000
  141.1558  133.8886  157.1982 LP  0  0  0  0  0  0  0  0  0  0  0  0  # atno 17395 bound_to 11000

$$$$
