AV-unprocessed.smi:37|AV-procd|sdf|319|dock5
  -GOLD-   2262016143D 1   1.00000     0.00000
 Structure written by MMmdl.
 43 44  0  0  0  0  0  0  0  0  2 V2000
  153.4660  142.9973  159.8001 C   0  0  0  0  0  0  0  0  0  0  0  0
  152.8577  141.7174  160.3892 C   0  0  0  0  0  0  0  0  0  0  0  0
  152.8047  140.5813  159.3702 C   0  0  0  0  0  0  0  0  0  0  0  0
  153.8320  140.0502  158.9477 O   0  0  0  0  0  0  0  0  0  0  0  0
  151.5503  140.2648  159.0121 O   0  0  0  0  0  0  0  0  0  0  0  0
  151.3340  139.3469  157.9536 C   0  0  0  0  0  0  0  0  0  0  0  0
  149.9108  138.7878  158.0498 C   0  0  2  0  0  0  0  0  0  0  0  0
  149.8423  137.7869  159.0671 O   0  0  0  0  0  0  0  0  0  0  0  0
  149.3045  136.6094  158.5448 C   0  0  1  0  0  0  0  0  0  0  0  0
  148.4362  135.9290  159.5775 N   0  0  0  0  0  0  0  0  0  0  0  0
  147.8672  136.6387  160.6224 C   0  0  0  0  0  0  0  0  0  0  0  0
  147.0919  136.0266  161.5407 C   0  0  0  0  0  0  0  0  0  0  0  0
  146.5487  136.7414  162.5412 F   0  0  0  0  0  0  0  0  0  0  0  0
  146.8461  134.5891  161.4383 C   0  0  0  0  0  0  0  0  0  0  0  0
  146.1408  134.0359  162.2804 O   0  0  0  0  0  0  0  0  0  0  0  0
  147.4189  133.9167  160.3980 N   0  5  0  0  0  0  0  0  0  0  0  0
  148.2026  134.5322  159.4649 C   0  0  0  0  0  0  0  0  0  0  0  0
  148.7218  133.9364  158.5207 O   0  0  0  0  0  0  0  0  0  0  0  0
  148.5324  137.0095  157.2861 C   0  0  1  0  0  0  0  0  0  0  0  0
  146.7352  137.7739  157.7239 Br  0  0  0  0  0  0  0  0  0  0  0  0
  149.4545  138.0952  156.7604 C   0  0  1  0  0  0  0  0  0  0  0  0
  148.8014  138.9989  155.8782 O   0  0  0  0  0  0  0  0  0  0  0  0
  149.5218  139.7997  155.0726 C   0  0  0  0  0  0  0  0  0  0  0  0
  150.7505  139.8600  155.0252 O   0  0  0  0  0  0  0  0  0  0  0  0
  148.6473  140.6604  154.1638 C   0  0  0  0  0  0  0  0  0  0  0  0
  147.7852  141.6522  154.9565 C   0  0  0  0  0  0  0  0  0  0  0  0
  153.4623  143.7986  160.5391 H   0  0  0  0  0  0  0  0  0  0  0  0
  152.8998  143.3436  158.9346 H   0  0  0  0  0  0  0  0  0  0  0  0
  154.4993  142.8428  159.4870 H   0  0  0  0  0  0  0  0  0  0  0  0
  153.4389  141.3902  161.2517 H   0  0  0  0  0  0  0  0  0  0  0  0
  151.8472  141.9184  160.7461 H   0  0  0  0  0  0  0  0  0  0  0  0
  151.4631  139.8697  157.0048 H   0  0  0  0  0  0  0  0  0  0  0  0
  152.0641  138.5368  157.9857 H   0  0  0  0  0  0  0  0  0  0  0  0
  149.2051  139.5786  158.3099 H   0  0  0  0  0  0  0  0  0  0  0  0
  150.1286  135.9227  158.3412 H   0  0  0  0  0  0  0  0  0  0  0  0
  148.0307  137.7023  160.7114 H   0  0  0  0  0  0  0  0  0  0  0  0
  148.4030  136.1682  156.6045 H   0  0  0  0  0  0  0  0  0  0  0  0
  150.3218  137.6340  156.2842 H   0  0  0  0  0  0  0  0  0  0  0  0
  149.2884  141.2017  153.4674 H   0  0  0  0  0  0  0  0  0  0  0  0
  148.0118  140.0068  153.5657 H   0  0  0  0  0  0  0  0  0  0  0  0
  147.2018  142.2779  154.2812 H   0  0  0  0  0  0  0  0  0  0  0  0
  148.4008  142.3119  155.5691 H   0  0  0  0  0  0  0  0  0  0  0  0
  147.0849  141.1370  155.6147 H   0  0  0  0  0  0  0  0  0  0  0  0
  1  2  1  0  0  0  0
  1 27  1  0  0  0  0
  1 28  1  0  0  0  0
  1 29  1  0  0  0  0
  2  3  1  0  0  0  0
  2 30  1  0  0  0  0
  2 31  1  0  0  0  0
  3  4  2  0  0  0  0
  3  5  1  0  0  0  0
  5  6  1  0  0  0  0
  6  7  1  0  0  0  0
  6 32  1  0  0  0  0
  6 33  1  0  0  0  0
  7 21  1  0  0  0  0
  7  8  1  0  0  0  0
  7 34  1  0  0  0  0
  8  9  1  0  0  0  0
  9 10  1  0  0  0  0
  9 19  1  0  0  0  0
  9 35  1  0  0  0  0
 10 17  1  0  0  0  0
 10 11  1  0  0  0  0
 11 12  2  0  0  0  0
 11 36  1  0  0  0  0
 12 13  1  0  0  0  0
 12 14  1  0  0  0  0
 14 15  2  0  0  0  0
 14 16  1  0  0  0  0
 16 17  1  0  0  0  0
 17 18  2  0  0  0  0
 19 20  1  0  0  0  0
 19 21  1  0  0  0  0
 19 37  1  0  0  0  0
 21 22  1  0  0  0  0
 21 38  1  0  0  0  0
 22 23  1  0  0  0  0
 23 24  2  0  0  0  0
 23 25  1  0  0  0  0
 25 26  1  0  0  0  0
 25 39  1  0  0  0  0
 25 40  1  0  0  0  0
 26 41  1  0  0  0  0
 26 42  1  0  0  0  0
 26 43  1  0  0  0  0
M  CHG  1  16  -1
M  END
> <s_m_source_file>
AV-unprocessed.smi

> <i_m_source_file_index>
37

> <i_lp_mmshare_version>
43012

> <i_f3d_flags>
0

> <s_epik_input>
W0NIM11bQ0gyXUMoPU8pT1tDSDJdW0NAQEhdMU9bQ0BASF0objJbY0hdYyhGKWMoPU8pW25IXWMyPU8pW0NAQEhdKEJyKVtDQEhdMU9DKD1PKVtDSDJdW0NIM10=

> <s_epik_cmdline>
J2VwaWtfcHl0aG9uJywgJy1waCcsICc3LjAnLCAnLXRuJywgJzgnLCAnLW1hJywgJzIwMCcsICctbWV0YWxfYmluZGluZycsICctaW1hZScsICc8aW5maWxlLm1hZT4nLCAnLW9tYWUnLCAnPG91dGZpbGUubWFlPic=

> <r_epik_Ionization_Penalty>
1.08158

> <r_epik_Ionization_Penalty_Charging>
9.05154e-09

> <r_epik_Ionization_Penalty_Neutral>
1.08158

> <r_epik_State_Penalty>
1.13706

> <r_epik_Charging_Adjusted_Penalty>
1.13706

> <i_epik_Tot_Q>
-1

> <i_epik_Tot_abs_Q>
1

> <r_epik_Metal_State_Penalty>
0.00343535

> <b_epik_Metal_Only>
0

> <s_epik_Chemistry_Notes>
This compound has an ester and may undergo hydrolysis at high or low pH. This compound contains an acetal/aminal-like group ( X-CH(R)-Y where X, Y are N, S, or O) that may be acid/base labile, releasing an aldehyde.

> <s_lp_Force_Field>
OPLS_2005

> <r_lp_Energy>
34.8687

> <b_lp_Chiralities_Consistent>
1

> <s_lp_Variant>
AV-unprocessed.smi:37-17

> <Gold.Version>
5.8.1

> <Gold.Id.Protein>
6NUR|6NUR_protein|mol2

> <Gold.PLP.Fitness>
45.3563

> <Gold.PLP.PLP>
-38.6498

> <Gold.PLP.part.hbond>
-3.4697

> <Gold.PLP.part.metal>
0.0000

> <Gold.PLP.part.buried>
-4.8775

> <Gold.PLP.part.nonpolar>
-30.4525

> <Gold.PLP.part.repulsive>
0.0607

> <Gold.PLP.ligand.clash>
0.0000

> <Gold.PLP.ligand.torsion>
1.2091

> <Gold.PLP.Chemscore.Hbond>
2.9280

> <Gold.PLP.Chemscore.CHOScore>
0.0000

> <Gold.PLP.Chemscore.Metal>
0.0000

> <Gold.Chemscore.Hbonds>
donor molecule, donor type, donor heavy atom, donor atom, acceptor molecule, acceptor atom, score
      P1  H  6896  6908       L1    18  0.57
      P1  H  7989  7998       L1    24  0.99
      P1  H  7997  8008       L1     4  1.00

> <Gold.PLP.Chemscore.Internal.Correction>
0.3407

> <Gold.Rescore>
     Score         DG    S(hbond)    S(metal)    S(lipo)     H(rot)  DE(clash)    DE(int)     intcor
     11.63     -12.74       2.79        0.00      53.90       3.27       0.02       1.10       ----

> <Gold.Chemscore.Fitness>
11.6255

> <Gold.Chemscore.DG>
-12.7439

> <Gold.Chemscore.ZeroCoef>
-5.4800

> <Gold.Chemscore.Hbond>
2.7907

> <Gold.Chemscore.Metal>
0.0000

> <Gold.Chemscore.Lipo>
53.8998

> <Gold.Chemscore.Internal_Hbond>
0.0000

> <Gold.Chemscore.DEClash>
0.0221

> <Gold.Chemscore.DEInternal>
1.0963

> <Gold.Chemscore.Rot>
3.2669

> <Gold.Chemscore.Internal.Correction>
   9.000000E+99

> <Gold.Chemscore.Hbonds>
donor molecule, donor type, donor heavy atom, donor atom, acceptor molecule, acceptor atom, score
      P1  H  6896  6908       L1    18  0.11
      P1  H  7989  7998       L1    24  0.89
      P1  H  7997  8008       L1     4  0.91

> <Gold.Chemscore.Hbond.Weighted>
-9.3210

> <Gold.Chemscore.Metal.Weighted>
-0.0000

> <Gold.Chemscore.Lipo.Weighted>
-6.3063

> <Gold.Chemscore.Internal_Hbond.Weighted>
0.0000

> <Gold.Chemscore.DEClash.Weighted>
0.0221

> <Gold.Chemscore.DEInternal.Weighted>
1.0963

> <Gold.Chemscore.Rot.Weighted>
8.3634

> <Gold.Chemscore.Internal.Correction.Weighted>
   9.000000E+99

> <Gold.Protein.RotatedTorsions>
[ 6907 6896 6895 6894 ] final  121.87 input  -60.11 | X-H torsion
[ 7974 7965 7964 7962 ] final -109.17 input  175.53 | X-H torsion
[ 8008 7997 7996 7995 ] final  -99.17 input   59.86 | X-H torsion
[ 10167 10162 10161 10158 ] final -171.16 input  -65.29 | X-H torsion
[ 10718 10713 10712 10709 ] final  112.15 input   66.30 | X-H torsion
[ 10763 10752 10751 10750 ] final -153.47 input  -60.55 | X-H torsion
[ 11005 11000 10999 10996 ] final  -11.70 input  -57.11 | X-H torsion

> <Gold.Protein.ActiveResidues>
 VAL166  LYS551  ARG553  GLY616  TRP617  ASP618  TYR619  PRO620  LYS621  CYS622 
 ASP623  PHE694  ASN695  SER759  ASP760  ASP761  ALA762  ILE779  LEU786  VAL792 
 PHE793  MET794  SER795  GLU796  ALA797  LYS798  CYS799  TRP800  GLU811  SER814 

> <Gold.Protein.RotatedAtoms>
  152.4288  133.7241  159.6549 H   0  0  0  0  0  0  0  0  0  0  0  0  # atno 6907 bound_to 6896
  150.8166  133.8316  159.3164 H   0  0  0  0  0  0  0  0  0  0  0  0  # atno 6908 bound_to 6896
  151.6011  135.1049  160.0112 H   0  0  0  0  0  0  0  0  0  0  0  0  # atno 6909 bound_to 6896
  145.1838  140.8983  143.3464 H   0  0  0  0  0  0  0  0  0  0  0  0  # atno 7974 bound_to 7965
  154.8111  140.0450  157.1343 H   0  0  0  0  0  0  0  0  0  0  0  0  # atno 8008 bound_to 7997
  154.9367  140.3047  155.5121 H   0  0  0  0  0  0  0  0  0  0  0  0  # atno 8009 bound_to 7997
  156.2972  140.2313  156.4432 H   0  0  0  0  0  0  0  0  0  0  0  0  # atno 8010 bound_to 7997
  139.5819  144.1405  152.1525 H   0  0  0  0  0  0  0  0  0  0  0  0  # atno 10167 bound_to 10162
  157.6408  131.0963  150.6853 H   0  0  0  0  0  0  0  0  0  0  0  0  # atno 10718 bound_to 10713
  154.7925  135.3212  154.7743 H   0  0  0  0  0  0  0  0  0  0  0  0  # atno 10763 bound_to 10752
  153.8428  135.6869  153.4805 H   0  0  0  0  0  0  0  0  0  0  0  0  # atno 10764 bound_to 10752
  153.1602  135.4664  154.9702 H   0  0  0  0  0  0  0  0  0  0  0  0  # atno 10765 bound_to 10752
  140.7580  133.8538  155.9100 H   0  0  0  0  0  0  0  0  0  0  0  0  # atno 11005 bound_to 11000
  145.0109  139.3511  143.6120 LP  0  0  0  0  0  0  0  0  0  0  0  0  # atno 17320 bound_to 7965
  146.3448  139.9371  142.8746 LP  0  0  0  0  0  0  0  0  0  0  0  0  # atno 17321 bound_to 7965
  140.0960  144.5580  150.7021 LP  0  0  0  0  0  0  0  0  0  0  0  0  # atno 17342 bound_to 10162
  140.7096  143.2494  151.4623 LP  0  0  0  0  0  0  0  0  0  0  0  0  # atno 17343 bound_to 10162
  156.7177  130.4671  149.5531 LP  0  0  0  0  0  0  0  0  0  0  0  0  # atno 17370 bound_to 10713
  156.1686  130.6422  151.0809 LP  0  0  0  0  0  0  0  0  0  0  0  0  # atno 17371 bound_to 10713
  140.9690  134.1557  157.4592 LP  0  0  0  0  0  0  0  0  0  0  0  0  # atno 17394 bound_to 11000
  139.8776  134.9972  156.5832 LP  0  0  0  0  0  0  0  0  0  0  0  0  # atno 17395 bound_to 11000

$$$$
